<?xml version="1.0" ?><!-- generated on 08/12/21 19:05:52 by Eclipse SUMO netedit Version 1.8.0
<configuration xmlns:xsi="http://www.w3.org/2001/XMLSchema-instance" xsi:noNamespaceSchemaLocation="http://sumo.dlr.de/xsd/netconvertConfiguration.xsd">

    <input>
        <sumo-net-file value="D:\Program%20Files%20(x86)\Eclipse\Sumo\Scenarios\traci\osm.net.xml"/>
    </input>

    <output>
        <output-file value="D:\Program%20Files%20(x86)\Eclipse\Sumo\Scenarios\traci\osm.net.xml"/>
        <output.street-names value="true"/>
    </output>

    <processing>
        <geometry.min-radius.fix.railways value="false"/>
        <geometry.max-grade.fix value="false"/>
        <offset.disable-normalization value="true"/>
        <lefthand value="false"/>
    </processing>

    <junctions>
        <no-turnarounds value="true"/>
        <junctions.corner-detail value="5"/>
        <junctions.limit-turn-speed value="5.5"/>
        <rectangular-lane-cut value="false"/>
    </junctions>

    <pedestrian>
        <walkingareas value="false"/>
    </pedestrian>

    <netedit>
        <additional-files value="D:\Program%20Files%20(x86)\Eclipse\Sumo\Scenarios\traci\detector_modified.add.xml"/>
    </netedit>

    <report>
        <aggregate-warnings value="5"/>
    </report>

</configuration>
--><additional xmlns:xsi="http://www.w3.org/2001/XMLSchema-instance" xsi:noNamespaceSchemaLocation="http://sumo.dlr.de/xsd/additional_file.xsd">
    <e1Detector id="e1Detector_119259533#1_0_82" lane="119259533#1_0" pos="486.50" freq="300.00" file="e1Detector_output.xml"/>
    <e1Detector id="e1Detector_119259533#1_1_81" lane="119259533#1_1" pos="487.10" freq="300.00" file="e1Detector_output.xml"/>
    <e1Detector id="e1Detector_119259533#1_2_80" lane="119259533#1_2" pos="486.49" freq="300.00" file="e1Detector_output.xml"/>
    <e1Detector id="e1Detector_119259533#1_3_79" lane="119259533#1_3" pos="486.80" freq="300.00" file="e1Detector_output.xml"/>
    <e1Detector id="e1Detector_119259533#1_4_78" lane="119259533#1_4" pos="487.09" freq="300.00" file="e1Detector_output.xml"/>
    <e1Detector id="e1Detector_119259533#1_5_77" lane="119259533#1_5" pos="487.39" freq="300.00" file="e1Detector_output.xml"/>
    <e1Detector id="e1Detector_119259545.5ONRAMP_0_281" lane="119259545.5ONRAMP_0" pos="92.45" freq="300.00" file="e1Detector_output.xml"/>
    <e1Detector id="e1Detector_119961515#2_0_126" lane="119961515#2_0" pos="636.24" freq="300.00" file="e1Detector_output.xml"/>
    <e1Detector id="e1Detector_119961515#2_1_125" lane="119961515#2_1" pos="636.45" freq="300.00" file="e1Detector_output.xml"/>
    <e1Detector id="e1Detector_119961515#2_2_124" lane="119961515#2_2" pos="637.08" freq="300.00" file="e1Detector_output.xml"/>
    <e1Detector id="e1Detector_119961515#2_3_123" lane="119961515#2_3" pos="637.31" freq="300.00" file="e1Detector_output.xml"/>
    <e1Detector id="e1Detector_119961515#2_4_122" lane="119961515#2_4" pos="637.66" freq="300.00" file="e1Detector_output.xml"/>
    <e1Detector id="e1Detector_119961516_0_106" lane="119961516_0" pos="265.19" freq="300.00" file="e1Detector_output.xml"/>
    <e1Detector id="e1Detector_119961516_1_105" lane="119961516_1" pos="265.18" freq="300.00" file="e1Detector_output.xml"/>
    <e1Detector id="e1Detector_119961516_2_104" lane="119961516_2" pos="264.81" freq="300.00" file="e1Detector_output.xml"/>
    <e1Detector id="e1Detector_119961516_3_103" lane="119961516_3" pos="264.67" freq="300.00" file="e1Detector_output.xml"/>
    <e1Detector id="e1Detector_119961516_4_102" lane="119961516_4" pos="264.93" freq="300.00" file="e1Detector_output.xml"/>
    <e1Detector id="e1Detector_119961517#1_0_114" lane="119961517#1_0" pos="301.89" freq="300.00" file="e1Detector_output.xml"/>
    <e1Detector id="e1Detector_119961517#1_1_113" lane="119961517#1_1" pos="302.17" freq="300.00" file="e1Detector_output.xml"/>
    <e1Detector id="e1Detector_119961517#1_2_112" lane="119961517#1_2" pos="302.07" freq="300.00" file="e1Detector_output.xml"/>
    <e1Detector id="e1Detector_119961517#1_3_111" lane="119961517#1_3" pos="302.16" freq="300.00" file="e1Detector_output.xml"/>
    <e1Detector id="e1Detector_119961517#1_4_110" lane="119961517#1_4" pos="302.43" freq="300.00" file="e1Detector_output.xml"/>
    <e1Detector id="e1Detector_119961517#1_5_109" lane="119961517#1_5" pos="302.52" freq="300.00" file="e1Detector_output.xml"/>
    <e1Detector id="e1Detector_123592907_0_334" lane="123592907_0" pos="754.45" freq="300.00" file="e1Detector_output.xml"/>
    <e1Detector id="e1Detector_123592907_1_333" lane="123592907_1" pos="753.91" freq="300.00" file="e1Detector_output.xml"/>
    <e1Detector id="e1Detector_123592907_2_332" lane="123592907_2" pos="752.76" freq="300.00" file="e1Detector_output.xml"/>
    <e1Detector id="e1Detector_123592907_3_331" lane="123592907_3" pos="751.77" freq="300.00" file="e1Detector_output.xml"/>
    <e1Detector id="e1Detector_123592907_4_330" lane="123592907_4" pos="750.74" freq="300.00" file="e1Detector_output.xml"/>
    <e1Detector id="e1Detector_123592908_0_311" lane="123592908_0" pos="402.49" freq="300.00" file="e1Detector_output.xml"/>
    <e1Detector id="e1Detector_123592908_1_310" lane="123592908_1" pos="402.58" freq="300.00" file="e1Detector_output.xml"/>
    <e1Detector id="e1Detector_123592908_2_309" lane="123592908_2" pos="402.51" freq="300.00" file="e1Detector_output.xml"/>
    <e1Detector id="e1Detector_123592908_3_308" lane="123592908_3" pos="402.68" freq="300.00" file="e1Detector_output.xml"/>
    <e1Detector id="e1Detector_123951238#0_0_60" lane="123951238#0_0" pos="212.67" freq="300.00" file="e1Detector_output.xml"/>
    <e1Detector id="e1Detector_123951238#0_1_59" lane="123951238#0_1" pos="212.24" freq="300.00" file="e1Detector_output.xml"/>
    <e1Detector id="e1Detector_123951238#0_2_58" lane="123951238#0_2" pos="212.20" freq="300.00" file="e1Detector_output.xml"/>
    <e1Detector id="e1Detector_123951238#0_3_57" lane="123951238#0_3" pos="212.60" freq="300.00" file="e1Detector_output.xml"/>
    <e1Detector id="e1Detector_123951238#0_4_56" lane="123951238#0_4" pos="212.02" freq="300.00" file="e1Detector_output.xml"/>
    <e1Detector id="e1Detector_123951238#0_5_55" lane="123951238#0_5" pos="212.54" freq="300.00" file="e1Detector_output.xml"/>
    <e1Detector id="e1Detector_123951238#2_0_68" lane="123951238#2_0" pos="973.73" freq="300.00" file="e1Detector_output.xml"/>
    <e1Detector id="e1Detector_123951238#2_1_67" lane="123951238#2_1" pos="973.44" freq="300.00" file="e1Detector_output.xml"/>
    <e1Detector id="e1Detector_123951238#2_2_66" lane="123951238#2_2" pos="973.50" freq="300.00" file="e1Detector_output.xml"/>
    <e1Detector id="e1Detector_123951238#2_3_65" lane="123951238#2_3" pos="974.04" freq="300.00" file="e1Detector_output.xml"/>
    <e1Detector id="e1Detector_123951238#2_4_64" lane="123951238#2_4" pos="974.57" freq="300.00" file="e1Detector_output.xml"/>
    <e1Detector id="e1Detector_123951238#2_5_63" lane="123951238#2_5" pos="974.40" freq="300.00" file="e1Detector_output.xml"/>
    <e1Detector id="e1Detector_13261456.667ONRAMP_0_292" lane="13261456.667ONRAMP_0" pos="154.15" freq="300.00" file="e1Detector_output.xml"/>
    <e1Detector id="e1Detector_13261456.667ONRAMP_1_291" lane="13261456.667ONRAMP_1" pos="154.39" freq="300.00" file="e1Detector_output.xml"/>
    <e1Detector id="e1Detector_13266930OFFRAMP_0_266" lane="13266930OFFRAMP_0" pos="118.02" freq="300.00" file="e1Detector_output.xml"/>
    <e1Detector id="e1Detector_13267472OFFRAMP_0_268" lane="13267472OFFRAMP_0" pos="56.60" freq="300.00" file="e1Detector_output.xml"/>
    <e1Detector id="e1Detector_13268027#1.111ONRAMP_0_267" lane="13268027#1.111ONRAMP_0" pos="147.97" freq="300.00" file="e1Detector_output.xml"/>
    <e1Detector id="e1Detector_13277929OFFRAMP_0_285" lane="13277929OFFRAMP_0" pos="209.66" freq="300.00" file="e1Detector_output.xml"/>
    <e1Detector id="e1Detector_156415555_0_37" lane="156415555_0" pos="62.87" freq="300.00" file="e1Detector_output.xml"/>
    <e1Detector id="e1Detector_156415555_1_36" lane="156415555_1" pos="63.07" freq="300.00" file="e1Detector_output.xml"/>
    <e1Detector id="e1Detector_156415826#0_0_60" lane="156415826#0_0" pos="19.36" freq="300.00" file="e1Detector_output.xml"/>
    <e1Detector id="e1Detector_156415826#0_1_59" lane="156415826#0_1" pos="19.01" freq="300.00" file="e1Detector_output.xml"/>
    <e1Detector id="e1Detector_156415826#0_2_58" lane="156415826#0_2" pos="19.21" freq="300.00" file="e1Detector_output.xml"/>
    <e1Detector id="e1Detector_156415826#0_3_57" lane="156415826#0_3" pos="18.88" freq="300.00" file="e1Detector_output.xml"/>
    <e1Detector id="e1Detector_156415826#0_4_56" lane="156415826#0_4" pos="18.98" freq="300.00" file="e1Detector_output.xml"/>
    <e1Detector id="e1Detector_156415826#0_5_55" lane="156415826#0_5" pos="18.74" freq="300.00" file="e1Detector_output.xml"/>
    <e1Detector id="e1Detector_156415826#0_6_54" lane="156415826#0_6" pos="18.86" freq="300.00" file="e1Detector_output.xml"/>
    <e1Detector id="e1Detector_156453601OFFRAMP_0_274" lane="156453601OFFRAMP_0" pos="34.55" freq="300.00" file="e1Detector_output.xml"/>
    <e1Detector id="e1Detector_156460298.229ONRAMP_0_279" lane="156460298.229ONRAMP_0" pos="86.06" freq="300.00" file="e1Detector_output.xml"/>
    <e1Detector id="e1Detector_156460309OFFRAMP_0_284" lane="156460309OFFRAMP_0" pos="100.84" freq="300.00" file="e1Detector_output.xml"/>
    <e1Detector id="e1Detector_156460309OFFRAMP_1_283" lane="156460309OFFRAMP_1" pos="100.74" freq="300.00" file="e1Detector_output.xml"/>
    <e1Detector id="e1Detector_156466462OFFRAMP_0_295" lane="156466462OFFRAMP_0" pos="184.17" freq="300.00" file="e1Detector_output.xml"/>
    <e1Detector id="e1Detector_156466482#1_0_207" lane="156466482#1_0" pos="747.43" freq="300.00" file="e1Detector_output.xml"/>
    <e1Detector id="e1Detector_156466482#1_1_206" lane="156466482#1_1" pos="747.16" freq="300.00" file="e1Detector_output.xml"/>
    <e1Detector id="e1Detector_156466482#1_2_205" lane="156466482#1_2" pos="746.83" freq="300.00" file="e1Detector_output.xml"/>
    <e1Detector id="e1Detector_156466482#1_3_204" lane="156466482#1_3" pos="746.69" freq="300.00" file="e1Detector_output.xml"/>
    <e1Detector id="e1Detector_156466482#1_4_203" lane="156466482#1_4" pos="746.56" freq="300.00" file="e1Detector_output.xml"/>
    <e1Detector id="e1Detector_156466482#2_0_214" lane="156466482#2_0" pos="552.70" freq="300.00" file="e1Detector_output.xml"/>
    <e1Detector id="e1Detector_156466482#2_1_213" lane="156466482#2_1" pos="553.54" freq="300.00" file="e1Detector_output.xml"/>
    <e1Detector id="e1Detector_156466482#2_2_212" lane="156466482#2_2" pos="554.48" freq="300.00" file="e1Detector_output.xml"/>
    <e1Detector id="e1Detector_156466482#2_3_211" lane="156466482#2_3" pos="555.19" freq="300.00" file="e1Detector_output.xml"/>
    <e1Detector id="e1Detector_156466482#2_4_210" lane="156466482#2_4" pos="555.59" freq="300.00" file="e1Detector_output.xml"/>
    <e1Detector id="e1Detector_156466482#3_0_221" lane="156466482#3_0" pos="635.54" freq="300.00" file="e1Detector_output.xml"/>
    <e1Detector id="e1Detector_156466482#3_1_220" lane="156466482#3_1" pos="636.56" freq="300.00" file="e1Detector_output.xml"/>
    <e1Detector id="e1Detector_156466482#3_2_219" lane="156466482#3_2" pos="636.90" freq="300.00" file="e1Detector_output.xml"/>
    <e1Detector id="e1Detector_156466482#3_3_218" lane="156466482#3_3" pos="637.45" freq="300.00" file="e1Detector_output.xml"/>
    <e1Detector id="e1Detector_156466482#3_4_217" lane="156466482#3_4" pos="637.78" freq="300.00" file="e1Detector_output.xml"/>
    <e1Detector id="e1Detector_156471815_0_291" lane="156471815_0" pos="289.94" freq="300.00" file="e1Detector_output.xml"/>
    <e1Detector id="e1Detector_156471815_1_290" lane="156471815_1" pos="291.30" freq="300.00" file="e1Detector_output.xml"/>
    <e1Detector id="e1Detector_156471815_2_289" lane="156471815_2" pos="290.84" freq="300.00" file="e1Detector_output.xml"/>
    <e1Detector id="e1Detector_156471815_3_288" lane="156471815_3" pos="290.97" freq="300.00" file="e1Detector_output.xml"/>
    <e1Detector id="e1Detector_156471815_4_287" lane="156471815_4" pos="290.65" freq="300.00" file="e1Detector_output.xml"/>
    <e1Detector id="e1Detector_172463547ONRAMP_0_282" lane="172463547ONRAMP_0" pos="399.02" freq="300.00" file="e1Detector_output.xml"/>
    <e1Detector id="e1Detector_174767579_0_85" lane="174767579_0" pos="913.32" freq="300.00" file="e1Detector_output.xml"/>
    <e1Detector id="e1Detector_174767579_1_84" lane="174767579_1" pos="912.91" freq="300.00" file="e1Detector_output.xml"/>
    <e1Detector id="e1Detector_174767579_2_83" lane="174767579_2" pos="912.40" freq="300.00" file="e1Detector_output.xml"/>
    <e1Detector id="e1Detector_174767579_3_82" lane="174767579_3" pos="912.26" freq="300.00" file="e1Detector_output.xml"/>
    <e1Detector id="e1Detector_174767579_4_81" lane="174767579_4" pos="911.59" freq="300.00" file="e1Detector_output.xml"/>
    <e1Detector id="e1Detector_174767579_5_80" lane="174767579_5" pos="911.75" freq="300.00" file="e1Detector_output.xml"/>
    <e1Detector id="e1Detector_17489169OFFRAMP_0_278" lane="17489169OFFRAMP_0" pos="67.61" freq="300.00" file="e1Detector_output.xml"/>
    <e1Detector id="e1Detector_17593971OFFRAMP_0_280" lane="17593971OFFRAMP_0" pos="76.99" freq="300.00" file="e1Detector_output.xml"/>
    <e1Detector id="e1Detector_182793385#0.336ONRAMP_0_290" lane="182793385#0.336ONRAMP_0" pos="96.87" freq="300.00" file="e1Detector_output.xml"/>
    <e1Detector id="e1Detector_182793398OFFRAMP_0_312" lane="182793398OFFRAMP_0" pos="117.62" freq="300.00" file="e1Detector_output.xml"/>
    <e1Detector id="e1Detector_182793398OFFRAMP_1_313" lane="182793398OFFRAMP_1" pos="116.33" freq="300.00" file="e1Detector_output.xml"/>
    <e1Detector id="e1Detector_24672417_0_121" lane="24672417_0" pos="739.10" freq="300.00" file="e1Detector_output.xml"/>
    <e1Detector id="e1Detector_24672417_1_120" lane="24672417_1" pos="738.87" freq="300.00" file="e1Detector_output.xml"/>
    <e1Detector id="e1Detector_24672417_2_119" lane="24672417_2" pos="738.63" freq="300.00" file="e1Detector_output.xml"/>
    <e1Detector id="e1Detector_24672417_3_118" lane="24672417_3" pos="738.20" freq="300.00" file="e1Detector_output.xml"/>
    <e1Detector id="e1Detector_24672417_4_117" lane="24672417_4" pos="738.58" freq="300.00" file="e1Detector_output.xml"/>
    <e1Detector id="e1Detector_24719679#2_0_94" lane="24719679#2_0" pos="487.83" freq="300.00" file="e1Detector_output.xml"/>
    <e1Detector id="e1Detector_24719679#2_1_93" lane="24719679#2_1" pos="488.44" freq="300.00" file="e1Detector_output.xml"/>
    <e1Detector id="e1Detector_24719679#2_2_92" lane="24719679#2_2" pos="488.52" freq="300.00" file="e1Detector_output.xml"/>
    <e1Detector id="e1Detector_24719679#2_3_91" lane="24719679#2_3" pos="488.85" freq="300.00" file="e1Detector_output.xml"/>
    <e1Detector id="e1Detector_24719679#2_4_90" lane="24719679#2_4" pos="488.63" freq="300.00" file="e1Detector_output.xml"/>
    <e1Detector id="e1Detector_24719679#2_5_89" lane="24719679#2_5" pos="488.67" freq="300.00" file="e1Detector_output.xml"/>
    <e1Detector id="e1Detector_24719734OFFRAMP_0_288" lane="24719734OFFRAMP_0" pos="121.41" freq="300.00" file="e1Detector_output.xml"/>
    <e1Detector id="e1Detector_24719748_0_100" lane="24719748_0" pos="424.93" freq="300.00" file="e1Detector_output.xml"/>
    <e1Detector id="e1Detector_24719748_1_99" lane="24719748_1" pos="425.10" freq="300.00" file="e1Detector_output.xml"/>
    <e1Detector id="e1Detector_24719748_2_98" lane="24719748_2" pos="425.28" freq="300.00" file="e1Detector_output.xml"/>
    <e1Detector id="e1Detector_24719748_3_97" lane="24719748_3" pos="425.44" freq="300.00" file="e1Detector_output.xml"/>
    <e1Detector id="e1Detector_24719748_4_96" lane="24719748_4" pos="425.62" freq="300.00" file="e1Detector_output.xml"/>
    <e1Detector id="e1Detector_24740602-AddedOffRampEdge_1_200" lane="24740602-AddedOffRampEdge_1" pos="7.65" freq="300.00" file="e1Detector_output.xml"/>
    <e1Detector id="e1Detector_24740602-AddedOffRampEdge_2_199" lane="24740602-AddedOffRampEdge_2" pos="7.26" freq="300.00" file="e1Detector_output.xml"/>
    <e1Detector id="e1Detector_24740602-AddedOffRampEdge_3_198" lane="24740602-AddedOffRampEdge_3" pos="7.17" freq="300.00" file="e1Detector_output.xml"/>
    <e1Detector id="e1Detector_24740602-AddedOffRampEdge_4_197" lane="24740602-AddedOffRampEdge_4" pos="6.99" freq="300.00" file="e1Detector_output.xml"/>
    <e1Detector id="e1Detector_24740602-AddedOffRampEdge_5_196" lane="24740602-AddedOffRampEdge_5" pos="6.69" freq="300.00" file="e1Detector_output.xml"/>
    <e1Detector id="e1Detector_24740602_0_195" lane="24740602_0" pos="309.27" freq="300.00" file="e1Detector_output.xml"/>
    <e1Detector id="e1Detector_24740602_1_194" lane="24740602_1" pos="309.24" freq="300.00" file="e1Detector_output.xml"/>
    <e1Detector id="e1Detector_24740602_2_193" lane="24740602_2" pos="309.24" freq="300.00" file="e1Detector_output.xml"/>
    <e1Detector id="e1Detector_24740602_3_192" lane="24740602_3" pos="309.64" freq="300.00" file="e1Detector_output.xml"/>
    <e1Detector id="e1Detector_24740602_4_191" lane="24740602_4" pos="310.12" freq="300.00" file="e1Detector_output.xml"/>
    <e1Detector id="e1Detector_24740602_5_190" lane="24740602_5" pos="311.08" freq="300.00" file="e1Detector_output.xml"/>
    <e1Detector id="e1Detector_25656650#1_0_33" lane="25656650#1_0" pos="411.48" freq="300.00" file="e1Detector_output.xml"/>
    <e1Detector id="e1Detector_25656650#1_1_34" lane="25656650#1_1" pos="409.85" freq="300.00" file="e1Detector_output.xml"/>
    <e1Detector id="e1Detector_25656650#1_2_32" lane="25656650#1_2" pos="409.57" freq="300.00" file="e1Detector_output.xml"/>
    <e1Detector id="e1Detector_25656650#1_3_31" lane="25656650#1_3" pos="409.28" freq="300.00" file="e1Detector_output.xml"/>
    <e1Detector id="e1Detector_25656652#1_0_17" lane="25656652#1_0" pos="559.45" freq="300.00" file="e1Detector_output.xml"/>
    <e1Detector id="e1Detector_25656652#1_1_18" lane="25656652#1_1" pos="558.75" freq="300.00" file="e1Detector_output.xml"/>
    <e1Detector id="e1Detector_25656652#1_2_16" lane="25656652#1_2" pos="560.37" freq="300.00" file="e1Detector_output.xml"/>
    <e1Detector id="e1Detector_25656652#1_3_15" lane="25656652#1_3" pos="561.97" freq="300.00" file="e1Detector_output.xml"/>
    <e1Detector id="e1Detector_25656676OFFRAMP_0_270" lane="25656676OFFRAMP_0" pos="104.16" freq="300.00" file="e1Detector_output.xml"/>
    <e1Detector id="e1Detector_27260026_0_307" lane="27260026_0" pos="99.29" freq="300.00" file="e1Detector_output.xml"/>
    <e1Detector id="e1Detector_27260026_1_306" lane="27260026_1" pos="99.11" freq="300.00" file="e1Detector_output.xml"/>
    <e1Detector id="e1Detector_27260026_2_305" lane="27260026_2" pos="99.35" freq="300.00" file="e1Detector_output.xml"/>
    <e1Detector id="e1Detector_27260026_3_304" lane="27260026_3" pos="99.43" freq="300.00" file="e1Detector_output.xml"/>
    <e1Detector id="e1Detector_27260026_4_303" lane="27260026_4" pos="99.33" freq="300.00" file="e1Detector_output.xml"/>
    <e1Detector id="e1Detector_28767756ONRAMP_0_275" lane="28767756ONRAMP_0" pos="140.61" freq="300.00" file="e1Detector_output.xml"/>
    <e1Detector id="e1Detector_28767781_0_30" lane="28767781_0" pos="577.13" freq="300.00" file="e1Detector_output.xml"/>
    <e1Detector id="e1Detector_28767781_1_31" lane="28767781_1" pos="575.99" freq="300.00" file="e1Detector_output.xml"/>
    <e1Detector id="e1Detector_28767781_2_32" lane="28767781_2" pos="575.91" freq="300.00" file="e1Detector_output.xml"/>
    <e1Detector id="e1Detector_28767781_3_33" lane="28767781_3" pos="576.37" freq="300.00" file="e1Detector_output.xml"/>
    <e1Detector id="e1Detector_28929962#1_0_11" lane="28929962#1_0" pos="605.68" freq="300.00" file="e1Detector_output.xml"/>
    <e1Detector id="e1Detector_28929962#1_1_10" lane="28929962#1_1" pos="605.46" freq="300.00" file="e1Detector_output.xml"/>
    <e1Detector id="e1Detector_28929962#1_2_9" lane="28929962#1_2" pos="605.63" freq="300.00" file="e1Detector_output.xml"/>
    <e1Detector id="e1Detector_28929962#1_3_8" lane="28929962#1_3" pos="607.09" freq="300.00" file="e1Detector_output.xml"/>
    <e1Detector id="e1Detector_28930094#3_0_33" lane="28930094#3_0" pos="116.16" freq="300.00" file="e1Detector_output.xml"/>
    <e1Detector id="e1Detector_28930094#3_0_7" lane="28930094#3_0" pos="1041.70" freq="300.00" file="e1Detector_output.xml"/>
    <e1Detector id="e1Detector_28930094#3_1_32" lane="28930094#3_1" pos="116.14" freq="300.00" file="e1Detector_output.xml"/>
    <e1Detector id="e1Detector_28930094#3_1_6" lane="28930094#3_1" pos="1042.10" freq="300.00" file="e1Detector_output.xml"/>
    <e1Detector id="e1Detector_28930094#3_2_31" lane="28930094#3_2" pos="116.39" freq="300.00" file="e1Detector_output.xml"/>
    <e1Detector id="e1Detector_28930094#3_2_5" lane="28930094#3_2" pos="1042.23" freq="300.00" file="e1Detector_output.xml"/>
    <e1Detector id="e1Detector_28930094#3_3_30" lane="28930094#3_3" pos="116.92" freq="300.00" file="e1Detector_output.xml"/>
    <e1Detector id="e1Detector_28930094#3_3_4" lane="28930094#3_3" pos="1043.16" freq="300.00" file="e1Detector_output.xml"/>
    <e1Detector id="e1Detector_292096828_0_40" lane="292096828_0" pos="75.94" freq="300.00" file="e1Detector_output.xml"/>
    <e1Detector id="e1Detector_292096828_0_48" lane="292096828_0" pos="805.25" freq="300.00" file="e1Detector_output.xml"/>
    <e1Detector id="e1Detector_292096828_0_54" lane="292096828_0" pos="1226.01" freq="300.00" file="e1Detector_output.xml"/>
    <e1Detector id="e1Detector_292096828_1_39" lane="292096828_1" pos="76.57" freq="300.00" file="e1Detector_output.xml"/>
    <e1Detector id="e1Detector_292096828_1_47" lane="292096828_1" pos="804.03" freq="300.00" file="e1Detector_output.xml"/>
    <e1Detector id="e1Detector_292096828_1_53" lane="292096828_1" pos="1225.63" freq="300.00" file="e1Detector_output.xml"/>
    <e1Detector id="e1Detector_292096834.93ONRAMP_0_271" lane="292096834.93ONRAMP_0" pos="157.42" freq="300.00" file="e1Detector_output.xml"/>
    <e1Detector id="e1Detector_292096835.193ONRAMP_0_294" lane="292096835.193ONRAMP_0" pos="135.55" freq="300.00" file="e1Detector_output.xml"/>
    <e1Detector id="e1Detector_29276029OFFRAMP_0_293" lane="29276029OFFRAMP_0" pos="68.52" freq="300.00" file="e1Detector_output.xml"/>
    <e1Detector id="e1Detector_29288798OFFRAMP_0_297" lane="29288798OFFRAMP_0" pos="36.59" freq="300.00" file="e1Detector_output.xml"/>
    <e1Detector id="e1Detector_29319522.65ONRAMP_0_273" lane="29319522.65ONRAMP_0" pos="220.33" freq="300.00" file="e1Detector_output.xml"/>
    <e1Detector id="e1Detector_29328457.274ONRAMP_0_301" lane="29328457.274ONRAMP_0" pos="115.14" freq="300.00" file="e1Detector_output.xml"/>
    <e1Detector id="e1Detector_29335389OFFRAMP_0_302" lane="29335389OFFRAMP_0" pos="163.68" freq="300.00" file="e1Detector_output.xml"/>
    <e1Detector id="e1Detector_29336334OFFRAMP_0_303" lane="29336334OFFRAMP_0" pos="123.10" freq="300.00" file="e1Detector_output.xml"/>
    <e1Detector id="e1Detector_29336337.298ONRAMP_0_304" lane="29336337.298ONRAMP_0" pos="130.68" freq="300.00" file="e1Detector_output.xml"/>
    <e1Detector id="e1Detector_29354968.977ONRAMP_0_310" lane="29354968.977ONRAMP_0" pos="203.92" freq="300.00" file="e1Detector_output.xml"/>
    <e1Detector id="e1Detector_29354968.977ONRAMP_1_311" lane="29354968.977ONRAMP_1" pos="202.42" freq="300.00" file="e1Detector_output.xml"/>
    <e1Detector id="e1Detector_29355090#1_0_180" lane="29355090#1_0" pos="247.34" freq="300.00" file="e1Detector_output.xml"/>
    <e1Detector id="e1Detector_29355090#1_0_187" lane="29355090#1_0" pos="708.38" freq="300.00" file="e1Detector_output.xml"/>
    <e1Detector id="e1Detector_29355090#1_1_179" lane="29355090#1_1" pos="247.59" freq="300.00" file="e1Detector_output.xml"/>
    <e1Detector id="e1Detector_29355090#1_1_186" lane="29355090#1_1" pos="708.44" freq="300.00" file="e1Detector_output.xml"/>
    <e1Detector id="e1Detector_29355090#1_2_178" lane="29355090#1_2" pos="247.57" freq="300.00" file="e1Detector_output.xml"/>
    <e1Detector id="e1Detector_29355090#1_2_185" lane="29355090#1_2" pos="708.25" freq="300.00" file="e1Detector_output.xml"/>
    <e1Detector id="e1Detector_29355090#1_3_177" lane="29355090#1_3" pos="247.41" freq="300.00" file="e1Detector_output.xml"/>
    <e1Detector id="e1Detector_29355090#1_3_184" lane="29355090#1_3" pos="708.52" freq="300.00" file="e1Detector_output.xml"/>
    <e1Detector id="e1Detector_29355090#1_4_176" lane="29355090#1_4" pos="247.90" freq="300.00" file="e1Detector_output.xml"/>
    <e1Detector id="e1Detector_29355090#1_4_183" lane="29355090#1_4" pos="708.07" freq="300.00" file="e1Detector_output.xml"/>
    <e1Detector id="e1Detector_29355546OFFRAMP_0_307" lane="29355546OFFRAMP_0" pos="76.25" freq="300.00" file="e1Detector_output.xml"/>
    <e1Detector id="e1Detector_29355546OFFRAMP_1_306" lane="29355546OFFRAMP_1" pos="76.03" freq="300.00" file="e1Detector_output.xml"/>
    <e1Detector id="e1Detector_29369836.86ONRAMP_0_315" lane="29369836.86ONRAMP_0" pos="240.75" freq="300.00" file="e1Detector_output.xml"/>
    <e1Detector id="e1Detector_29369836.86ONRAMP_1_314" lane="29369836.86ONRAMP_1" pos="241.96" freq="300.00" file="e1Detector_output.xml"/>
    <e1Detector id="e1Detector_29396605OFFRAMP_0_317" lane="29396605OFFRAMP_0" pos="142.29" freq="300.00" file="e1Detector_output.xml"/>
    <e1Detector id="e1Detector_29396605OFFRAMP_1_316" lane="29396605OFFRAMP_1" pos="142.74" freq="300.00" file="e1Detector_output.xml"/>
    <e1Detector id="e1Detector_29396610#1ONRAMP_0_319" lane="29396610#1ONRAMP_0" pos="111.18" freq="300.00" file="e1Detector_output.xml"/>
    <e1Detector id="e1Detector_29396610#1ONRAMP_1_318" lane="29396610#1ONRAMP_1" pos="112.71" freq="300.00" file="e1Detector_output.xml"/>
    <e1Detector id="e1Detector_29396632#1_0_229" lane="29396632#1_0" pos="566.94" freq="300.00" file="e1Detector_output.xml"/>
    <e1Detector id="e1Detector_29396632#1_0_234" lane="29396632#1_0" pos="452.09" freq="300.00" file="e1Detector_output.xml"/>
    <e1Detector id="e1Detector_29396632#1_1_228" lane="29396632#1_1" pos="565.63" freq="300.00" file="e1Detector_output.xml"/>
    <e1Detector id="e1Detector_29396632#1_1_233" lane="29396632#1_1" pos="451.64" freq="300.00" file="e1Detector_output.xml"/>
    <e1Detector id="e1Detector_29396632#1_2_227" lane="29396632#1_2" pos="564.36" freq="300.00" file="e1Detector_output.xml"/>
    <e1Detector id="e1Detector_29396632#1_2_232" lane="29396632#1_2" pos="450.77" freq="300.00" file="e1Detector_output.xml"/>
    <e1Detector id="e1Detector_29396632#1_3_226" lane="29396632#1_3" pos="563.96" freq="300.00" file="e1Detector_output.xml"/>
    <e1Detector id="e1Detector_29396632#1_3_231" lane="29396632#1_3" pos="450.01" freq="300.00" file="e1Detector_output.xml"/>
    <e1Detector id="e1Detector_29396632#1_4_225" lane="29396632#1_4" pos="562.83" freq="300.00" file="e1Detector_output.xml"/>
    <e1Detector id="e1Detector_29396632#1_4_230" lane="29396632#1_4" pos="449.34" freq="300.00" file="e1Detector_output.xml"/>
    <e1Detector id="e1Detector_29396634OFFRAMP_0_320" lane="29396634OFFRAMP_0" pos="12.50" freq="300.00" file="e1Detector_output.xml"/>
    <e1Detector id="e1Detector_29405335OFFRAMP_0_327" lane="29405335OFFRAMP_0" pos="128.18" freq="300.00" file="e1Detector_output.xml"/>
    <e1Detector id="e1Detector_29405335OFFRAMP_1_326" lane="29405335OFFRAMP_1" pos="127.54" freq="300.00" file="e1Detector_output.xml"/>
    <e1Detector id="e1Detector_29405519.184ONRAMP_0_324" lane="29405519.184ONRAMP_0" pos="125.43" freq="300.00" file="e1Detector_output.xml"/>
    <e1Detector id="e1Detector_29405531.390ONRAMP_0_325" lane="29405531.390ONRAMP_0" pos="49.26" freq="300.00" file="e1Detector_output.xml"/>
    <e1Detector id="e1Detector_29407584OFFRAMP_0_331" lane="29407584OFFRAMP_0" pos="213.50" freq="300.00" file="e1Detector_output.xml"/>
    <e1Detector id="e1Detector_29407584OFFRAMP_1_331" lane="29407584OFFRAMP_1" pos="213.25" freq="300.00" file="e1Detector_output.xml"/>
    <e1Detector id="e1Detector_29407664.610ONRAMP_0_337" lane="29407664.610ONRAMP_0" pos="210.09" freq="300.00" file="e1Detector_output.xml"/>
    <e1Detector id="e1Detector_29407664.610ONRAMP_1_336" lane="29407664.610ONRAMP_1" pos="210.48" freq="300.00" file="e1Detector_output.xml"/>
    <e1Detector id="e1Detector_29407836OFFRAMP_0_333" lane="29407836OFFRAMP_0" pos="124.13" freq="300.00" file="e1Detector_output.xml"/>
    <e1Detector id="e1Detector_29407836OFFRAMP_1_333" lane="29407836OFFRAMP_1" pos="124.29" freq="300.00" file="e1Detector_output.xml"/>
    <e1Detector id="e1Detector_29407945OFFRAMP_0_338" lane="29407945OFFRAMP_0" pos="170.92" freq="300.00" file="e1Detector_output.xml"/>
    <e1Detector id="e1Detector_29407960.241ONRAMP_0_339" lane="29407960.241ONRAMP_0" pos="112.70" freq="300.00" file="e1Detector_output.xml"/>
    <e1Detector id="e1Detector_29409351OFFRAMP_0_340" lane="29409351OFFRAMP_0" pos="129.10" freq="300.00" file="e1Detector_output.xml"/>
    <e1Detector id="e1Detector_29466067OFFRAMP_0_344" lane="29466067OFFRAMP_0" pos="40.18" freq="300.00" file="e1Detector_output.xml"/>
    <e1Detector id="e1Detector_302013371.67ONRAMP_0_335" lane="302013371.67ONRAMP_0" pos="141.22" freq="300.00" file="e1Detector_output.xml"/>
    <e1Detector id="e1Detector_302013371.67ONRAMP_1_334" lane="302013371.67ONRAMP_1" pos="140.68" freq="300.00" file="e1Detector_output.xml"/>
    <e1Detector id="e1Detector_34534148.21ONRAMP_0_286" lane="34534148.21ONRAMP_0" pos="219.69" freq="300.00" file="e1Detector_output.xml"/>
    <e1Detector id="e1Detector_38000784OFFRAMP_0_308" lane="38000784OFFRAMP_0" pos="146.16" freq="300.00" file="e1Detector_output.xml"/>