<?xml version="1.0" encoding="UTF-8"?>

<!-- generated on 08/12/21 19:05:42 by Eclipse SUMO netedit Version 1.8.0
<configuration xmlns:xsi="http://www.w3.org/2001/XMLSchema-instance" xsi:noNamespaceSchemaLocation="http://sumo.dlr.de/xsd/netconvertConfiguration.xsd">

    <input>
        <sumo-net-file value="D:\Program%20Files%20(x86)\Eclipse\Sumo\Scenarios\traci\osm.net.xml"/>
    </input>

    <output>
        <output-file value="D:\Program%20Files%20(x86)\Eclipse\Sumo\Scenarios\traci\osm.net.xml"/>
        <output.street-names value="true"/>
    </output>

    <processing>
        <geometry.min-radius.fix.railways value="false"/>
        <geometry.max-grade.fix value="false"/>
        <offset.disable-normalization value="true"/>
        <lefthand value="false"/>
    </processing>

    <junctions>
        <no-turnarounds value="true"/>
        <junctions.corner-detail value="5"/>
        <junctions.limit-turn-speed value="5.5"/>
        <rectangular-lane-cut value="false"/>
    </junctions>

    <pedestrian>
        <walkingareas value="false"/>
    </pedestrian>

    <report>
        <aggregate-warnings value="5"/>
    </report>

</configuration>
-->

<net version="1.6" junctionCornerDetail="5" limitTurnSpeed="5.50" xmlns:xsi="http://www.w3.org/2001/XMLSchema-instance" xsi:noNamespaceSchemaLocation="http://sumo.dlr.de/xsd/net_file.xsd">

    <location netOffset="-386390.13,-3772964.05" convBoundary="2035.17,143.69,52832.56,15638.64" origBoundary="-118.233312,33.743053,-117.481625,34.267061" projParameter="+proj=utm +zone=11 +ellps=WGS84 +datum=WGS84 +units=m +no_defs"/>

    <type id="highway.bridleway" priority="1" numLanes="1" speed="2.78" allow="pedestrian" oneway="1" width="2.00"/>
    <type id="highway.bus_guideway" priority="1" numLanes="1" speed="27.78" allow="bus" oneway="1"/>
    <type id="highway.cycleway" priority="1" numLanes="1" speed="8.33" allow="bicycle" oneway="1" width="1.00"/>
    <type id="highway.footway" priority="1" numLanes="1" speed="2.78" allow="pedestrian" oneway="1" width="2.00"/>
    <type id="highway.ford" priority="1" numLanes="1" speed="2.78" allow="army" oneway="1"/>
    <type id="highway.living_street" priority="2" numLanes="1" speed="2.78" disallow="tram rail_urban rail rail_electric rail_fast ship" oneway="1"/>
    <type id="highway.motorway" priority="14" numLanes="2" speed="39.44" allow="private emergency authority army vip passenger hov taxi bus coach delivery truck trailer motorcycle evehicle custom1 custom2" oneway="1"/>
    <type id="highway.motorway_link" priority="9" numLanes="1" speed="22.22" allow="private emergency authority army vip passenger hov taxi bus coach delivery truck trailer motorcycle evehicle custom1 custom2" oneway="1"/>
    <type id="highway.path" priority="1" numLanes="1" speed="2.78" allow="pedestrian bicycle" oneway="1" width="2.00"/>
    <type id="highway.pedestrian" priority="1" numLanes="1" speed="2.78" allow="pedestrian" oneway="1" width="2.00"/>
    <type id="highway.primary" priority="12" numLanes="2" speed="27.78" disallow="tram rail_urban rail rail_electric rail_fast ship" oneway="1"/>
    <type id="highway.primary_link" priority="7" numLanes="1" speed="22.22" disallow="tram rail_urban rail rail_electric rail_fast ship" oneway="1"/>
    <type id="highway.raceway" priority="15" numLanes="2" speed="83.33" allow="vip" oneway="1"/>
    <type id="highway.residential" priority="3" numLanes="1" speed="13.89" disallow="tram rail_urban rail rail_electric rail_fast ship" oneway="1"/>
    <type id="highway.secondary" priority="11" numLanes="1" speed="27.78" disallow="tram rail_urban rail rail_electric rail_fast ship" oneway="1"/>
    <type id="highway.secondary_link" priority="6" numLanes="1" speed="22.22" disallow="tram rail_urban rail rail_electric rail_fast ship" oneway="1"/>
    <type id="highway.service" priority="1" numLanes="1" speed="5.56" allow="pedestrian delivery bicycle" oneway="1"/>
    <type id="highway.stairs" priority="1" numLanes="1" speed="1.39" allow="pedestrian" oneway="1" width="2.00"/>
    <type id="highway.step" priority="1" numLanes="1" speed="1.39" allow="pedestrian" oneway="1" width="2.00"/>
    <type id="highway.steps" priority="1" numLanes="1" speed="1.39" allow="pedestrian" oneway="1" width="2.00"/>
    <type id="highway.tertiary" priority="10" numLanes="1" speed="22.22" disallow="tram rail_urban rail rail_electric rail_fast ship" oneway="1"/>
    <type id="highway.tertiary_link" priority="5" numLanes="1" speed="22.22" disallow="tram rail_urban rail rail_electric rail_fast ship" oneway="1"/>
    <type id="highway.track" priority="1" numLanes="1" speed="5.56" allow="pedestrian motorcycle moped bicycle" oneway="1"/>
    <type id="highway.trunk" priority="13" numLanes="2" speed="27.78" disallow="pedestrian bicycle tram rail_urban rail rail_electric rail_fast ship" oneway="1"/>
    <type id="highway.trunk_link" priority="8" numLanes="1" speed="22.22" disallow="pedestrian bicycle tram rail_urban rail rail_electric rail_fast ship" oneway="1"/>
    <type id="highway.unclassified" priority="4" numLanes="1" speed="13.89" disallow="tram rail_urban rail rail_electric rail_fast ship" oneway="1"/>
    <type id="highway.unsurfaced" priority="1" numLanes="1" speed="8.33" disallow="tram rail_urban rail rail_electric rail_fast ship" oneway="1"/>
    <type id="railway.highspeed" priority="21" numLanes="1" speed="69.44" allow="rail_fast" oneway="1"/>
    <type id="railway.light_rail" priority="19" numLanes="1" speed="27.78" allow="rail_urban" oneway="1"/>
    <type id="railway.preserved" priority="16" numLanes="1" speed="27.78" allow="rail" oneway="1"/>
    <type id="railway.rail" priority="20" numLanes="1" speed="44.44" allow="rail" oneway="1"/>
    <type id="railway.subway" priority="18" numLanes="1" speed="27.78" allow="rail_urban" oneway="1"/>
    <type id="railway.tram" priority="17" numLanes="1" speed="13.89" allow="tram" oneway="1"/>

    <edge id=":1102600868_0" function="internal">
        <lane id=":1102600868_0_0" index="0" allow="private emergency authority army vip passenger hov taxi bus coach delivery truck trailer motorcycle evehicle custom1 custom2" speed="25.64" length="3.45" shape="28701.93,3789.74 28705.32,3788.87"/>
        <lane id=":1102600868_0_1" index="1" allow="private emergency authority army vip passenger hov taxi bus coach delivery truck trailer motorcycle evehicle custom1 custom2" speed="25.64" length="3.45" shape="28702.78,3792.82 28706.08,3791.98"/>
    </edge>
    <edge id=":1102600868_2" function="internal">
        <lane id=":1102600868_2_0" index="0" allow="private emergency authority army vip passenger hov taxi bus coach delivery truck trailer motorcycle evehicle custom1 custom2" speed="29.06" length="3.13" shape="28703.62,3795.91 28706.83,3795.05"/>
        <lane id=":1102600868_2_1" index="1" allow="private emergency authority army vip passenger hov taxi bus coach delivery truck trailer motorcycle evehicle custom1 custom2" speed="29.06" length="3.13" shape="28704.47,3798.99 28707.58,3798.16"/>
        <lane id=":1102600868_2_2" index="2" allow="private emergency authority army vip passenger hov taxi bus coach delivery truck trailer motorcycle evehicle custom1 custom2" speed="29.06" length="3.13" shape="28705.31,3802.08 28708.34,3801.27"/>
        <lane id=":1102600868_2_3" index="3" allow="private emergency authority army vip passenger hov taxi bus coach delivery truck trailer motorcycle evehicle custom1 custom2" speed="29.06" length="3.13" shape="28706.16,3805.17 28709.10,3804.38"/>
        <lane id=":1102600868_2_4" index="4" allow="private emergency authority army vip passenger hov taxi bus coach delivery truck trailer motorcycle evehicle custom1 custom2" speed="29.06" length="3.13" shape="28707.01,3808.25 28709.86,3807.49"/>
    </edge>
    <edge id=":1102601819_0" function="internal">
        <lane id=":1102601819_0_0" index="0" allow="private emergency authority army vip passenger hov taxi bus coach delivery truck trailer motorcycle evehicle custom1 custom2" speed="25.64" length="3.28" shape="31589.91,2927.31 31593.19,2927.17"/>
    </edge>
    <edge id=":1102601819_1" function="internal">
        <lane id=":1102601819_1_0" index="0" allow="private emergency authority army vip passenger hov taxi bus coach delivery truck trailer motorcycle evehicle custom1 custom2" speed="29.06" length="2.82" shape="31590.01,2930.57 31593.13,2930.37"/>
        <lane id=":1102601819_1_1" index="1" allow="private emergency authority army vip passenger hov taxi bus coach delivery truck trailer motorcycle evehicle custom1 custom2" speed="29.06" length="2.82" shape="31590.10,2933.77 31593.07,2933.57"/>
        <lane id=":1102601819_1_2" index="2" allow="private emergency authority army vip passenger hov taxi bus coach delivery truck trailer motorcycle evehicle custom1 custom2" speed="29.06" length="2.82" shape="31590.19,2936.97 31593.01,2936.77"/>
        <lane id=":1102601819_1_3" index="3" allow="private emergency authority army vip passenger hov taxi bus coach delivery truck trailer motorcycle evehicle custom1 custom2" speed="29.06" length="2.82" shape="31590.29,2940.17 31592.95,2939.97"/>
        <lane id=":1102601819_1_4" index="4" allow="private emergency authority army vip passenger hov taxi bus coach delivery truck trailer motorcycle evehicle custom1 custom2" speed="29.06" length="2.82" shape="31590.38,2943.37 31592.89,2943.16"/>
    </edge>
    <edge id=":1108626845_0" function="internal">
        <lane id=":1108626845_0_0" index="0" allow="private emergency authority army vip passenger hov taxi bus coach delivery truck trailer motorcycle evehicle custom1 custom2" speed="29.06" length="8.15" shape="29395.94,3234.66 29397.31,3232.61 29397.94,3230.99 29398.60,3229.40 29400.04,3227.40"/>
        <lane id=":1108626845_0_1" index="1" allow="private emergency authority army vip passenger hov taxi bus coach delivery truck trailer motorcycle evehicle custom1 custom2" speed="29.06" length="8.15" shape="29398.41,3236.69 29399.75,3234.67 29400.37,3233.07 29401.02,3231.50 29402.43,3229.53"/>
        <lane id=":1108626845_0_2" index="2" allow="private emergency authority army vip passenger hov taxi bus coach delivery truck trailer motorcycle evehicle custom1 custom2" speed="29.06" length="8.15" shape="29400.88,3238.73 29402.20,3236.73 29402.80,3235.16 29403.43,3233.60 29404.82,3231.66"/>
        <lane id=":1108626845_0_3" index="3" allow="private emergency authority army vip passenger hov taxi bus coach delivery truck trailer motorcycle evehicle custom1 custom2" speed="29.06" length="8.15" shape="29403.34,3240.76 29404.65,3238.79 29405.24,3237.24 29405.85,3235.70 29407.21,3233.78"/>
        <lane id=":1108626845_0_4" index="4" allow="private emergency authority army vip passenger hov taxi bus coach delivery truck trailer motorcycle evehicle custom1 custom2" speed="29.06" length="8.15" shape="29405.81,3242.80 29407.09,3240.86 29407.67,3239.32 29408.26,3237.80 29409.60,3235.91"/>
    </edge>
    <edge id=":1108626845_5" function="internal">
        <lane id=":1108626845_5_0" index="0" allow="private emergency authority army vip passenger hov taxi bus coach delivery truck trailer motorcycle evehicle custom1 custom2" speed="25.64" length="8.51" shape="29393.52,3232.66 29394.88,3230.56 29395.52,3228.92 29396.19,3227.30 29397.65,3225.28"/>
    </edge>
    <edge id=":119259533#1-AddedOnRampNode_0" function="internal">
        <lane id=":119259533#1-AddedOnRampNode_0_0" index="0" allow="private emergency authority army vip passenger hov taxi bus coach delivery truck trailer motorcycle evehicle custom1 custom2" speed="29.06" length="8.00" shape="10819.02,6627.77 10827.01,6627.77"/>
        <lane id=":119259533#1-AddedOnRampNode_0_1" index="1" allow="private emergency authority army vip passenger hov taxi bus coach delivery truck trailer motorcycle evehicle custom1 custom2" speed="29.06" length="8.00" shape="10819.01,6630.97 10827.01,6630.97"/>
        <lane id=":119259533#1-AddedOnRampNode_0_2" index="2" allow="private emergency authority army vip passenger hov taxi bus coach delivery truck trailer motorcycle evehicle custom1 custom2" speed="29.06" length="8.00" shape="10819.01,6634.17 10827.01,6634.17"/>
        <lane id=":119259533#1-AddedOnRampNode_0_3" index="3" allow="private emergency authority army vip passenger hov taxi bus coach delivery truck trailer motorcycle evehicle custom1 custom2" speed="29.06" length="8.00" shape="10819.01,6637.37 10827.01,6637.37"/>
        <lane id=":119259533#1-AddedOnRampNode_0_4" index="4" allow="private emergency authority army vip passenger hov taxi bus coach delivery truck trailer motorcycle evehicle custom1 custom2" speed="29.06" length="8.00" shape="10819.01,6640.57 10827.01,6640.57"/>
        <lane id=":119259533#1-AddedOnRampNode_0_5" index="5" allow="private emergency authority army vip passenger hov taxi bus coach delivery truck trailer motorcycle evehicle custom1 custom2" speed="29.06" length="8.00" shape="10819.00,6643.77 10827.00,6643.77"/>
    </edge>
    <edge id=":119889707#1-AddedOffRampNode_0" function="internal">
        <lane id=":119889707#1-AddedOffRampNode_0_0" index="0" allow="private emergency authority army vip passenger hov taxi bus coach delivery truck trailer motorcycle evehicle custom1 custom2" speed="29.06" length="8.13" shape="24848.90,4611.30 24851.26,4610.43 24852.61,4609.10 24853.96,4607.78 24856.31,4606.91"/>
        <lane id=":119889707#1-AddedOffRampNode_0_1" index="1" allow="private emergency authority army vip passenger hov taxi bus coach delivery truck trailer motorcycle evehicle custom1 custom2" speed="29.06" length="8.13" shape="24848.90,4611.30 24856.80,4610.07"/>
        <lane id=":119889707#1-AddedOffRampNode_0_2" index="2" allow="private emergency authority army vip passenger hov taxi bus coach delivery truck trailer motorcycle evehicle custom1 custom2" speed="29.06" length="8.13" shape="24849.39,4614.46 24857.29,4613.24"/>
        <lane id=":119889707#1-AddedOffRampNode_0_3" index="3" allow="private emergency authority army vip passenger hov taxi bus coach delivery truck trailer motorcycle evehicle custom1 custom2" speed="29.06" length="8.13" shape="24849.88,4617.62 24857.79,4616.40"/>
        <lane id=":119889707#1-AddedOffRampNode_0_4" index="4" allow="private emergency authority army vip passenger hov taxi bus coach delivery truck trailer motorcycle evehicle custom1 custom2" speed="29.06" length="8.13" shape="24850.37,4620.78 24858.28,4619.56"/>
        <lane id=":119889707#1-AddedOffRampNode_0_5" index="5" allow="private emergency authority army vip passenger hov taxi bus coach delivery truck trailer motorcycle evehicle custom1 custom2" speed="29.06" length="8.13" shape="24850.86,4623.95 24858.77,4622.72"/>
    </edge>
    <edge id=":119961515#1-AddedOffRampNode_0" function="internal">
        <lane id=":119961515#1-AddedOffRampNode_0_0" index="0" allow="private emergency authority army vip passenger hov taxi bus coach delivery truck trailer motorcycle evehicle custom1 custom2" speed="29.06" length="8.13" shape="17983.74,6117.50 17986.14,6116.76 17987.57,6115.51 17988.99,6114.26 17991.39,6113.52"/>
        <lane id=":119961515#1-AddedOffRampNode_0_1" index="1" allow="private emergency authority army vip passenger hov taxi bus coach delivery truck trailer motorcycle evehicle custom1 custom2" speed="29.06" length="8.13" shape="17983.74,6117.50 17991.70,6116.71"/>
        <lane id=":119961515#1-AddedOffRampNode_0_2" index="2" allow="private emergency authority army vip passenger hov taxi bus coach delivery truck trailer motorcycle evehicle custom1 custom2" speed="29.06" length="8.13" shape="17984.06,6120.68 17992.02,6119.89"/>
        <lane id=":119961515#1-AddedOffRampNode_0_3" index="3" allow="private emergency authority army vip passenger hov taxi bus coach delivery truck trailer motorcycle evehicle custom1 custom2" speed="29.06" length="8.13" shape="17984.38,6123.87 17992.34,6123.08"/>
        <lane id=":119961515#1-AddedOffRampNode_0_4" index="4" allow="private emergency authority army vip passenger hov taxi bus coach delivery truck trailer motorcycle evehicle custom1 custom2" speed="29.06" length="8.13" shape="17984.70,6127.05 17992.66,6126.26"/>
        <lane id=":119961515#1-AddedOffRampNode_0_5" index="5" allow="private emergency authority army vip passenger hov taxi bus coach delivery truck trailer motorcycle evehicle custom1 custom2" speed="29.06" length="8.13" shape="17985.01,6130.24 17992.97,6129.44"/>
    </edge>
    <edge id=":119961515#1-AddedOnRampNode_0" function="internal">
        <lane id=":119961515#1-AddedOnRampNode_0_0" index="0" allow="private emergency authority army vip passenger hov taxi bus coach delivery truck trailer motorcycle evehicle custom1 custom2" speed="29.06" length="8.00" shape="17289.93,6166.47 17297.93,6166.45"/>
        <lane id=":119961515#1-AddedOnRampNode_0_1" index="1" allow="private emergency authority army vip passenger hov taxi bus coach delivery truck trailer motorcycle evehicle custom1 custom2" speed="29.06" length="8.00" shape="17289.94,6169.67 17297.94,6169.65"/>
        <lane id=":119961515#1-AddedOnRampNode_0_2" index="2" allow="private emergency authority army vip passenger hov taxi bus coach delivery truck trailer motorcycle evehicle custom1 custom2" speed="29.06" length="8.00" shape="17289.94,6172.87 17297.94,6172.85"/>
        <lane id=":119961515#1-AddedOnRampNode_0_3" index="3" allow="private emergency authority army vip passenger hov taxi bus coach delivery truck trailer motorcycle evehicle custom1 custom2" speed="29.06" length="8.00" shape="17289.95,6176.07 17297.95,6176.05"/>
        <lane id=":119961515#1-AddedOnRampNode_0_4" index="4" allow="private emergency authority army vip passenger hov taxi bus coach delivery truck trailer motorcycle evehicle custom1 custom2" speed="29.06" length="8.00" shape="17289.95,6179.27 17297.95,6179.25"/>
    </edge>
    <edge id=":119961516-AddedOnRampNode_0" function="internal">
        <lane id=":119961516-AddedOnRampNode_0_0" index="0" allow="private emergency authority army vip passenger hov taxi bus coach delivery truck trailer motorcycle evehicle custom1 custom2" speed="29.06" length="8.00" shape="15243.18,6169.24 15251.18,6169.32"/>
        <lane id=":119961516-AddedOnRampNode_0_1" index="1" allow="private emergency authority army vip passenger hov taxi bus coach delivery truck trailer motorcycle evehicle custom1 custom2" speed="29.06" length="8.00" shape="15243.15,6172.44 15251.15,6172.52"/>
        <lane id=":119961516-AddedOnRampNode_0_2" index="2" allow="private emergency authority army vip passenger hov taxi bus coach delivery truck trailer motorcycle evehicle custom1 custom2" speed="29.06" length="8.00" shape="15243.12,6175.64 15251.12,6175.72"/>
        <lane id=":119961516-AddedOnRampNode_0_3" index="3" allow="private emergency authority army vip passenger hov taxi bus coach delivery truck trailer motorcycle evehicle custom1 custom2" speed="29.06" length="8.00" shape="15243.09,6178.84 15251.09,6178.92"/>
        <lane id=":119961516-AddedOnRampNode_0_4" index="4" allow="private emergency authority army vip passenger hov taxi bus coach delivery truck trailer motorcycle evehicle custom1 custom2" speed="29.06" length="8.00" shape="15243.06,6182.04 15251.06,6182.12"/>
    </edge>
    <edge id=":119961517#1-AddedOffRampNode_0" function="internal">
        <lane id=":119961517#1-AddedOffRampNode_0_0" index="0" allow="private emergency authority army vip passenger hov taxi bus coach delivery truck trailer motorcycle evehicle custom1 custom2" speed="29.06" length="1.60" shape="16231.02,6167.76 16231.02,6166.16"/>
        <lane id=":119961517#1-AddedOffRampNode_0_1" index="1" allow="private emergency authority army vip passenger hov taxi bus coach delivery truck trailer motorcycle evehicle custom1 custom2" speed="29.06" length="1.60" shape="16231.03,6170.96 16231.03,6169.36"/>
        <lane id=":119961517#1-AddedOffRampNode_0_2" index="2" allow="private emergency authority army vip passenger hov taxi bus coach delivery truck trailer motorcycle evehicle custom1 custom2" speed="29.06" length="1.60" shape="16231.04,6174.16 16231.04,6172.56"/>
        <lane id=":119961517#1-AddedOffRampNode_0_3" index="3" allow="private emergency authority army vip passenger hov taxi bus coach delivery truck trailer motorcycle evehicle custom1 custom2" speed="29.06" length="1.60" shape="16231.05,6177.36 16231.04,6175.76"/>
        <lane id=":119961517#1-AddedOffRampNode_0_4" index="4" allow="private emergency authority army vip passenger hov taxi bus coach delivery truck trailer motorcycle evehicle custom1 custom2" speed="29.06" length="1.60" shape="16231.05,6180.56 16231.05,6178.96"/>
        <lane id=":119961517#1-AddedOffRampNode_0_5" index="5" allow="private emergency authority army vip passenger hov taxi bus coach delivery truck trailer motorcycle evehicle custom1 custom2" speed="29.06" length="1.60" shape="16231.06,6183.76 16231.06,6182.16"/>
    </edge>
    <edge id=":119961517#1-AddedOnRampNode_0" function="internal">
        <lane id=":119961517#1-AddedOnRampNode_0_0" index="0" allow="private emergency authority army vip passenger hov taxi bus coach delivery truck trailer motorcycle evehicle custom1 custom2" speed="29.06" length="8.21" shape="15835.07,6167.08 15837.46,6167.32 15839.07,6167.87 15840.67,6168.42 15843.07,6168.66"/>
        <lane id=":119961517#1-AddedOnRampNode_0_1" index="1" allow="private emergency authority army vip passenger hov taxi bus coach delivery truck trailer motorcycle evehicle custom1 custom2" speed="29.06" length="8.21" shape="15835.07,6170.28 15837.47,6170.52 15839.08,6171.07 15840.68,6171.62 15843.08,6171.86"/>
        <lane id=":119961517#1-AddedOnRampNode_0_2" index="2" allow="private emergency authority army vip passenger hov taxi bus coach delivery truck trailer motorcycle evehicle custom1 custom2" speed="29.06" length="8.21" shape="15835.08,6173.48 15837.48,6173.72 15839.08,6174.27 15840.69,6174.82 15843.08,6175.06"/>
        <lane id=":119961517#1-AddedOnRampNode_0_3" index="3" allow="private emergency authority army vip passenger hov taxi bus coach delivery truck trailer motorcycle evehicle custom1 custom2" speed="29.06" length="8.21" shape="15835.09,6176.68 15837.49,6176.92 15839.09,6177.47 15840.69,6178.02 15843.09,6178.26"/>
        <lane id=":119961517#1-AddedOnRampNode_0_4" index="4" allow="private emergency authority army vip passenger hov taxi bus coach delivery truck trailer motorcycle evehicle custom1 custom2" speed="29.06" length="8.21" shape="15835.10,6179.88 15837.49,6180.12 15839.10,6180.67 15840.70,6181.22 15843.10,6181.46"/>
        <lane id=":119961517#1-AddedOnRampNode_0_5" index="5" allow="private emergency authority army vip passenger hov taxi bus coach delivery truck trailer motorcycle evehicle custom1 custom2" speed="29.06" length="8.21" shape="15835.10,6183.08 15837.50,6183.32 15839.11,6183.87 15840.71,6184.42 15843.11,6184.66"/>
    </edge>
    <edge id=":122550246_0" function="internal">
        <lane id=":122550246_0_0" index="0" allow="private emergency authority army vip passenger hov taxi bus coach delivery truck trailer motorcycle evehicle custom1 custom2" speed="25.64" length="3.15" shape="12151.31,6622.18 12154.46,6622.17"/>
    </edge>
    <edge id=":122550246_1" function="internal">
        <lane id=":122550246_1_0" index="0" allow="private emergency authority army vip passenger hov taxi bus coach delivery truck trailer motorcycle evehicle custom1 custom2" speed="29.06" length="3.08" shape="12151.33,6625.38 12154.46,6625.36"/>
        <lane id=":122550246_1_1" index="1" allow="private emergency authority army vip passenger hov taxi bus coach delivery truck trailer motorcycle evehicle custom1 custom2" speed="29.06" length="3.08" shape="12151.35,6628.58 12154.46,6628.56"/>
        <lane id=":122550246_1_2" index="2" allow="private emergency authority army vip passenger hov taxi bus coach delivery truck trailer motorcycle evehicle custom1 custom2" speed="29.06" length="3.08" shape="12151.36,6631.78 12154.45,6631.76"/>
        <lane id=":122550246_1_3" index="3" allow="private emergency authority army vip passenger hov taxi bus coach delivery truck trailer motorcycle evehicle custom1 custom2" speed="29.06" length="3.08" shape="12151.38,6634.98 12154.45,6634.96"/>
        <lane id=":122550246_1_4" index="4" allow="private emergency authority army vip passenger hov taxi bus coach delivery truck trailer motorcycle evehicle custom1 custom2" speed="29.06" length="3.08" shape="12151.40,6638.18 12154.45,6638.16"/>
        <lane id=":122550246_1_5" index="5" allow="private emergency authority army vip passenger hov taxi bus coach delivery truck trailer motorcycle evehicle custom1 custom2" speed="29.06" length="3.08" shape="12151.41,6641.38 12154.45,6641.36"/>
    </edge>
    <edge id=":123592907-AddedOffRampNode_0" function="internal">
        <lane id=":123592907-AddedOffRampNode_0_0" index="0" allow="private emergency authority army vip passenger hov taxi bus coach delivery truck trailer motorcycle evehicle custom1 custom2" speed="29.06" length="8.13" shape="45195.46,2790.73 45197.90,2790.02 45199.37,2788.80 45200.85,2787.59 45203.30,2786.93"/>
        <lane id=":123592907-AddedOffRampNode_0_1" index="1" allow="private emergency authority army vip passenger hov taxi bus coach delivery truck trailer motorcycle evehicle custom1 custom2" speed="29.06" length="8.13" shape="45195.46,2790.73 45203.51,2790.12"/>
        <lane id=":123592907-AddedOffRampNode_0_2" index="2" allow="private emergency authority army vip passenger hov taxi bus coach delivery truck trailer motorcycle evehicle custom1 custom2" speed="29.06" length="8.13" shape="45195.72,2793.91 45203.73,2793.31"/>
        <lane id=":123592907-AddedOffRampNode_0_3" index="3" allow="private emergency authority army vip passenger hov taxi bus coach delivery truck trailer motorcycle evehicle custom1 custom2" speed="29.06" length="8.13" shape="45195.99,2797.10 45203.94,2796.51"/>
        <lane id=":123592907-AddedOffRampNode_0_4" index="4" allow="private emergency authority army vip passenger hov taxi bus coach delivery truck trailer motorcycle evehicle custom1 custom2" speed="29.06" length="8.13" shape="45196.26,2800.29 45204.16,2799.70"/>
        <lane id=":123592907-AddedOffRampNode_0_5" index="5" allow="private emergency authority army vip passenger hov taxi bus coach delivery truck trailer motorcycle evehicle custom1 custom2" speed="29.06" length="8.13" shape="45196.53,2803.48 45204.38,2802.89"/>
    </edge>
    <edge id=":1346251751_0" function="internal">
        <lane id=":1346251751_0_0" index="0" allow="private emergency authority army vip passenger hov taxi bus coach delivery truck trailer motorcycle evehicle custom1 custom2" speed="29.06" length="2.87" shape="15145.65,6166.14 15148.52,6166.14"/>
    </edge>
    <edge id=":1346251751_1" function="internal">
        <lane id=":1346251751_1_0" index="0" allow="private emergency authority army vip passenger hov taxi bus coach delivery truck trailer motorcycle evehicle custom1 custom2" speed="29.06" length="3.01" shape="15145.64,6169.36 15148.56,6169.34"/>
        <lane id=":1346251751_1_1" index="1" allow="private emergency authority army vip passenger hov taxi bus coach delivery truck trailer motorcycle evehicle custom1 custom2" speed="29.06" length="3.01" shape="15145.63,6172.56 15148.59,6172.54"/>
        <lane id=":1346251751_1_2" index="2" allow="private emergency authority army vip passenger hov taxi bus coach delivery truck trailer motorcycle evehicle custom1 custom2" speed="29.06" length="3.01" shape="15145.62,6175.76 15148.63,6175.74"/>
        <lane id=":1346251751_1_3" index="3" allow="private emergency authority army vip passenger hov taxi bus coach delivery truck trailer motorcycle evehicle custom1 custom2" speed="29.06" length="3.01" shape="15145.61,6178.96 15148.67,6178.94"/>
        <lane id=":1346251751_1_4" index="4" allow="private emergency authority army vip passenger hov taxi bus coach delivery truck trailer motorcycle evehicle custom1 custom2" speed="29.06" length="3.01" shape="15145.60,6182.16 15148.71,6182.14"/>
    </edge>
    <edge id=":1377650720_0" function="internal">
        <lane id=":1377650720_0_0" index="0" allow="private emergency authority army vip passenger hov taxi bus coach delivery truck trailer motorcycle evehicle custom1 custom2" speed="39.44" length="8.21" shape="39062.78,2754.57 39065.17,2754.33 39066.78,2753.78 39068.38,2753.23 39070.78,2752.99"/>
        <lane id=":1377650720_0_1" index="1" allow="private emergency authority army vip passenger hov taxi bus coach delivery truck trailer motorcycle evehicle custom1 custom2" speed="39.44" length="8.21" shape="39062.77,2757.77 39065.17,2757.53 39066.77,2756.98 39068.38,2756.43 39070.77,2756.19"/>
        <lane id=":1377650720_0_2" index="2" allow="private emergency authority army vip passenger hov taxi bus coach delivery truck trailer motorcycle evehicle custom1 custom2" speed="39.44" length="8.21" shape="39062.76,2760.97 39065.16,2760.73 39066.77,2760.18 39068.37,2759.63 39070.77,2759.39"/>
        <lane id=":1377650720_0_3" index="3" allow="private emergency authority army vip passenger hov taxi bus coach delivery truck trailer motorcycle evehicle custom1 custom2" speed="39.44" length="8.21" shape="39062.76,2764.17 39065.16,2763.93 39066.76,2763.38 39068.36,2762.83 39070.76,2762.59"/>
    </edge>
    <edge id=":1380793136_0" function="internal">
        <lane id=":1380793136_0_0" index="0" allow="private emergency authority army vip passenger hov taxi bus coach delivery truck trailer motorcycle evehicle custom1 custom2" speed="29.06" length="8.21" shape="8929.77,6583.54 8932.15,6583.28 8933.73,6582.73 8935.31,6582.16 8937.68,6581.88"/>