<routes>
        <vType id="ml" accel="0.8" decel="4.5" sigma="0.5" length="5" minGap="2.5" maxSpeed="16.67" guiShape="passenger"/>
        <vType id="fr accel="0.8" decel="4.5" sigma="0.5" length="7" minGap="3" maxSpeed="25" guiShape="bus"/>

        <route id="ml" edges="182793385#0.336 119961516-AddedOnRampEdge 119961516 119961517#1-AddedOnRampEdge 119961517#1 119961517#1-AddedOffRampEdge 24672417" />
        <route id="fr" edges="182793385#0.336 119961516-AddedOnRampEdge 119961516 119961517#1-AddedOnRampEdge 119961517#1 119961517#1-AddedOffRampEdge 29276029" />
        
    <vehicle id="ml_0" type="ml" route="ml" depart="0" />
    <vehicle id="ml_1" type="ml" route="ml" depart="1" />
    <vehicle id="ml_2" type="ml" route="ml" depart="2" />
    <vehicle id="ml_3" type="ml" route="ml" depart="3" />
    <vehicle id="ml_4" type="ml" route="ml" depart="0" />
    <vehicle id="ml_5" type="ml" route="ml" depart="1" />
    <vehicle id="fr_6" type="fr" route="fr" depart="2" />
    <vehicle id="ml_7" type="ml" route="ml" depart="0" />
    <vehicle id="ml_8" type="ml" route="ml" depart="1" />
    <vehicle id="ml_9" type="ml" route="ml" depart="2" />
    <vehicle id="ml_10" type="ml" route="ml" depart="0" />
    <vehicle id="ml_11" type="ml" route="ml" depart="0" />
    <vehicle id="ml_12" type="ml" route="ml" depart="0" />
    <vehicle id="ml_13" type="ml" route="ml" depart="1" />
    <vehicle id="ml_14" type="ml" route="ml" depart="0" />
    <vehicle id="ml_15" type="ml" route="ml" depart="1" />
    <vehicle id="ml_16" type="ml" route="ml" depart="2" />
    <vehicle id="ml_17" type="ml" route="ml" depart="0" />
    <vehicle id="fr_18" type="fr" route="fr" depart="1" />
    <vehicle id="ml_19" type="ml" route="ml" depart="0" />
    <vehicle id="fr_20" type="fr" route="fr" depart="1" />
    <vehicle id="ml_21" type="ml" route="ml" depart="0" />
    <vehicle id="ml_22" type="ml" route="ml" depart="1" />
    <vehicle id="ml_23" type="ml" route="ml" depart="2" />
    <vehicle id="fr_24" type="fr" route="fr" depart="0" />
    <vehicle id="ml_25" type="ml" route="ml" depart="1" />
    <vehicle id="ml_26" type="ml" route="ml" depart="2" />
    <vehicle id="ml_27" type="ml" route="ml" depart="0" />
    <vehicle id="fr_28" type="fr" route="fr" depart="0" />
    <vehicle id="ml_29" type="ml" route="ml" depart="1" />
    <vehicle id="fr_30" type="fr" route="fr" depart="0" />
    <vehicle id="ml_31" type="ml" route="ml" depart="1" />
    <vehicle id="ml_32" type="ml" route="ml" depart="0" />
    <vehicle id="fr_33" type="fr" route="fr" depart="1" />
    <vehicle id="ml_34" type="ml" route="ml" depart="0" />
    <vehicle id="ml_35" type="ml" route="ml" depart="1" />
    <vehicle id="fr_36" type="fr" route="fr" depart="0" />
    <vehicle id="ml_37" type="ml" route="ml" depart="1" />
    <vehicle id="fr_38" type="fr" route="fr" depart="0" />
    <vehicle id="ml_39" type="ml" route="ml" depart="1" />
    <vehicle id="ml_40" type="ml" route="ml" depart="0" />
    <vehicle id="ml_41" type="ml" route="ml" depart="1" />
    <vehicle id="ml_42" type="ml" route="ml" depart="2" />
    <vehicle id="ml_43" type="ml" route="ml" depart="0" />
    <vehicle id="ml_44" type="ml" route="ml" depart="1" />
    <vehicle id="ml_45" type="ml" route="ml" depart="2" />
    <vehicle id="ml_46" type="ml" route="ml" depart="0" />
    <vehicle id="ml_47" type="ml" route="ml" depart="0" />
    <vehicle id="ml_48" type="ml" route="ml" depart="1" />
    <vehicle id="ml_49" type="ml" route="ml" depart="0" />
    <vehicle id="ml_50" type="ml" route="ml" depart="1" />
    <vehicle id="ml_51" type="ml" route="ml" depart="0" />
    <vehicle id="ml_52" type="ml" route="ml" depart="1" />
    <vehicle id="fr_53" type="fr" route="fr" depart="0" />
    <vehicle id="ml_54" type="ml" route="ml" depart="1" />
    <vehicle id="ml_55" type="ml" route="ml" depart="2" />
    <vehicle id="ml_56" type="ml" route="ml" depart="0" />
    <vehicle id="ml_57" type="ml" route="ml" depart="1" />
    <vehicle id="ml_58" type="ml" route="ml" depart="0" />
    <vehicle id="ml_59" type="ml" route="ml" depart="1" />
    <vehicle id="fr_60" type="fr" route="fr" depart="2" />
    <vehicle id="ml_61" type="ml" route="ml" depart="3" />
    <vehicle id="ml_62" type="ml" route="ml" depart="0" />
    <vehicle id="ml_63" type="ml" route="ml" depart="0" />
    <vehicle id="fr_64" type="fr" route="fr" depart="1" />
    <vehicle id="fr_65" type="fr" route="fr" depart="0" />
    <vehicle id="ml_66" type="ml" route="ml" depart="1" />
    <vehicle id="ml_67" type="ml" route="ml" depart="2" />
    <vehicle id="ml_68" type="ml" route="ml" depart="0" />
    <vehicle id="ml_69" type="ml" route="ml" depart="1" />
    <vehicle id="ml_70" type="ml" route="ml" depart="2" />
    <vehicle id="fr_71" type="fr" route="fr" depart="3" />
    <vehicle id="fr_72" type="fr" route="fr" depart="4" />
    <vehicle id="ml_73" type="ml" route="ml" depart="0" />
    <vehicle id="ml_74" type="ml" route="ml" depart="1" />
    <vehicle id="ml_75" type="ml" route="ml" depart="2" />
    <vehicle id="fr_76" type="fr" route="fr" depart="3" />
    <vehicle id="ml_77" type="ml" route="ml" depart="0" />
    <vehicle id="ml_78" type="ml" route="ml" depart="1" />
    <vehicle id="ml_79" type="ml" route="ml" depart="0" />
    <vehicle id="ml_80" type="ml" route="ml" depart="1" />
    <vehicle id="ml_81" type="ml" route="ml" depart="0" />
    <vehicle id="ml_82" type="ml" route="ml" depart="1" />
    <vehicle id="fr_83" type="fr" route="fr" depart="0" />
    <vehicle id="ml_84" type="ml" route="ml" depart="1" />
    <vehicle id="ml_85" type="ml" route="ml" depart="2" />
    <vehicle id="fr_86" type="fr" route="fr" depart="3" />
    <vehicle id="ml_87" type="ml" route="ml" depart="4" />
    <vehicle id="ml_88" type="ml" route="ml" depart="5" />
    <vehicle id="ml_89" type="ml" route="ml" depart="6" />
    <vehicle id="ml_90" type="ml" route="ml" depart="0" />
    <vehicle id="ml_91" type="ml" route="ml" depart="1" />
    <vehicle id="fr_92" type="fr" route="fr" depart="2" />
    <vehicle id="ml_93" type="ml" route="ml" depart="0" />
    <vehicle id="ml_94" type="ml" route="ml" depart="1" />
    <vehicle id="ml_95" type="ml" route="ml" depart="2" />
    <vehicle id="fr_96" type="fr" route="fr" depart="0" />
    <vehicle id="ml_97" type="ml" route="ml" depart="1" />
    <vehicle id="fr_98" type="fr" route="fr" depart="2" />
    <vehicle id="fr_99" type="fr" route="fr" depart="0" />
    <vehicle id="ml_100" type="ml" route="ml" depart="1" />
    <vehicle id="ml_101" type="ml" route="ml" depart="2" />
    <vehicle id="ml_102" type="ml" route="ml" depart="3" />
    <vehicle id="ml_103" type="ml" route="ml" depart="4" />
    <vehicle id="ml_104" type="ml" route="ml" depart="0" />
    <vehicle id="ml_105" type="ml" route="ml" depart="1" />
    <vehicle id="ml_106" type="ml" route="ml" depart="2" />
    <vehicle id="ml_107" type="ml" route="ml" depart="3" />
    <vehicle id="ml_108" type="ml" route="ml" depart="4" />
    <vehicle id="fr_109" type="fr" route="fr" depart="5" />
    <vehicle id="fr_110" type="fr" route="fr" depart="6" />
    <vehicle id="ml_111" type="ml" route="ml" depart="7" />
    <vehicle id="ml_112" type="ml" route="ml" depart="8" />
    <vehicle id="ml_113" type="ml" route="ml" depart="9" />
    <vehicle id="fr_114" type="fr" route="fr" depart="0" />
    <vehicle id="fr_115" type="fr" route="fr" depart="1" />
    <vehicle id="ml_116" type="ml" route="ml" depart="2" />
    <vehicle id="ml_117" type="ml" route="ml" depart="3" />
    <vehicle id="ml_118" type="ml" route="ml" depart="4" />
    <vehicle id="ml_119" type="ml" route="ml" depart="5" />
    <vehicle id="fr_120" type="fr" route="fr" depart="6" />
    <vehicle id="ml_121" type="ml" route="ml" depart="7" />
    <vehicle id="fr_122" type="fr" route="fr" depart="8" />
    <vehicle id="ml_123" type="ml" route="ml" depart="9" />
    <vehicle id="ml_124" type="ml" route="ml" depart="0" />
    <vehicle id="ml_125" type="ml" route="ml" depart="1" />
    <vehicle id="ml_126" type="ml" route="ml" depart="2" />
    <vehicle id="fr_127" type="fr" route="fr" depart="3" />
    <vehicle id="fr_128" type="fr" route="fr" depart="4" />
    <vehicle id="fr_129" type="fr" route="fr" depart="5" />
    <vehicle id="ml_130" type="ml" route="ml" depart="6" />
    <vehicle id="ml_131" type="ml" route="ml" depart="7" />
    <vehicle id="fr_132" type="fr" route="fr" depart="8" />
    <vehicle id="fr_133" type="fr" route="fr" depart="9" />
    <vehicle id="ml_134" type="ml" route="ml" depart="10" />
    <vehicle id="ml_135" type="ml" route="ml" depart="11" />
    <vehicle id="ml_136" type="ml" route="ml" depart="0" />
    <vehicle id="fr_137" type="fr" route="fr" depart="1" />
    <vehicle id="fr_138" type="fr" route="fr" depart="2" />
    <vehicle id="ml_139" type="ml" route="ml" depart="3" />
    <vehicle id="ml_140" type="ml" route="ml" depart="4" />
    <vehicle id="ml_141" type="ml" route="ml" depart="5" />
    <vehicle id="ml_142" type="ml" route="ml" depart="6" />
    <vehicle id="fr_143" type="fr" route="fr" depart="7" />
    <vehicle id="ml_144" type="ml" route="ml" depart="0" />
    <vehicle id="ml_145" type="ml" route="ml" depart="1" />
    <vehicle id="ml_146" type="ml" route="ml" depart="2" />
    <vehicle id="ml_147" type="ml" route="ml" depart="3" />
    <vehicle id="ml_148" type="ml" route="ml" depart="4" />
    <vehicle id="ml_149" type="ml" route="ml" depart="5" />
    <vehicle id="fr_150" type="fr" route="fr" depart="6" />
    <vehicle id="ml_151" type="ml" route="ml" depart="7" />
    <vehicle id="ml_152" type="ml" route="ml" depart="8" />
    <vehicle id="ml_153" type="ml" route="ml" depart="9" />
    <vehicle id="ml_154" type="ml" route="ml" depart="10" />
    <vehicle id="ml_155" type="ml" route="ml" depart="11" />
    <vehicle id="ml_156" type="ml" route="ml" depart="0" />
    <vehicle id="ml_157" type="ml" route="ml" depart="1" />
    <vehicle id="ml_158" type="ml" route="ml" depart="0" />
    <vehicle id="ml_159" type="ml" route="ml" depart="1" />
    <vehicle id="ml_160" type="ml" route="ml" depart="2" />
    <vehicle id="ml_161" type="ml" route="ml" depart="3" />
    <vehicle id="ml_162" type="ml" route="ml" depart="4" />
    <vehicle id="fr_163" type="fr" route="fr" depart="5" />
    <vehicle id="fr_164" type="fr" route="fr" depart="6" />
    <vehicle id="ml_165" type="ml" route="ml" depart="0" />
    <vehicle id="ml_166" type="ml" route="ml" depart="1" />
    <vehicle id="ml_167" type="ml" route="ml" depart="2" />
    <vehicle id="ml_168" type="ml" route="ml" depart="3" />
    <vehicle id="ml_169" type="ml" route="ml" depart="4" />
    <vehicle id="fr_170" type="fr" route="fr" depart="5" />
    <vehicle id="ml_171" type="ml" route="ml" depart="6" />
    <vehicle id="ml_172" type="ml" route="ml" depart="7" />
    <vehicle id="fr_173" type="fr" route="fr" depart="8" />
    <vehicle id="fr_174" type="fr" route="fr" depart="9" />
    <vehicle id="ml_175" type="ml" route="ml" depart="10" />
    <vehicle id="ml_176" type="ml" route="ml" depart="11" />
    <vehicle id="ml_177" type="ml" route="ml" depart="0" />
    <vehicle id="ml_178" type="ml" route="ml" depart="1" />
    <vehicle id="ml_179" type="ml" route="ml" depart="2" />
    <vehicle id="ml_180" type="ml" route="ml" depart="3" />
    <vehicle id="ml_181" type="ml" route="ml" depart="4" />
    <vehicle id="fr_182" type="fr" route="fr" depart="5" />
    <vehicle id="ml_183" type="ml" route="ml" depart="6" />
    <vehicle id="ml_184" type="ml" route="ml" depart="7" />
    <vehicle id="ml_185" type="ml" route="ml" depart="8" />
    <vehicle id="fr_186" type="fr" route="fr" depart="9" />
    <vehicle id="ml_187" type="ml" route="ml" depart="10" />
    <vehicle id="ml_188" type="ml" route="ml" depart="11" />
    <vehicle id="ml_189" type="ml" route="ml" depart="0" />
    <vehicle id="ml_190" type="ml" route="ml" depart="1" />
    <vehicle id="ml_191" type="ml" route="ml" depart="2" />
    <vehicle id="ml_192" type="ml" route="ml" depart="3" />
    <vehicle id="fr_193" type="fr" route="fr" depart="4" />
    <vehicle id="ml_194" type="ml" route="ml" depart="0" />
    <vehicle id="fr_195" type="fr" route="fr" depart="1" />
    <vehicle id="ml_196" type="ml" route="ml" depart="2" />
    <vehicle id="ml_197" type="ml" route="ml" depart="3" />
    <vehicle id="fr_198" type="fr" route="fr" depart="4" />
    <vehicle id="fr_199" type="fr" route="fr" depart="5" />
    <vehicle id="fr_200" type="fr" route="fr" depart="6" />
    <vehicle id="fr_201" type="fr" route="fr" depart="7" />
    <vehicle id="fr_202" type="fr" route="fr" depart="8" />
    <vehicle id="ml_203" type="ml" route="ml" depart="9" />
    <vehicle id="ml_204" type="ml" route="ml" depart="10" />
    <vehicle id="ml_205" type="ml" route="ml" depart="11" />
    <vehicle id="ml_206" type="ml" route="ml" depart="12" />
    <vehicle id="ml_207" type="ml" route="ml" depart="13" />
    <vehicle id="ml_208" type="ml" route="ml" depart="14" />
    <vehicle id="fr_209" type="fr" route="fr" depart="15" />
    <vehicle id="ml_210" type="ml" route="ml" depart="16" />
    <vehicle id="fr_211" type="fr" route="fr" depart="17" />
    <vehicle id="ml_212" type="ml" route="ml" depart="18" />
    <vehicle id="ml_213" type="ml" route="ml" depart="19" />
    <vehicle id="fr_214" type="fr" route="fr" depart="20" />
    <vehicle id="fr_215" type="fr" route="fr" depart="21" />
    <vehicle id="ml_216" type="ml" route="ml" depart="22" />
    <vehicle id="ml_217" type="ml" route="ml" depart="23" />
    <vehicle id="ml_218" type="ml" route="ml" depart="24" />
    <vehicle id="ml_219" type="ml" route="ml" depart="25" />
    <vehicle id="fr_220" type="fr" route="fr" depart="26" />
    <vehicle id="ml_221" type="ml" route="ml" depart="27" />
    <vehicle id="ml_222" type="ml" route="ml" depart="0" />
    <vehicle id="ml_223" type="ml" route="ml" depart="1" />
    <vehicle id="ml_224" type="ml" route="ml" depart="2" />
    <vehicle id="ml_225" type="ml" route="ml" depart="3" />
    <vehicle id="ml_226" type="ml" route="ml" depart="4" />
    <vehicle id="fr_227" type="fr" route="fr" depart="5" />
    <vehicle id="ml_228" type="ml" route="ml" depart="6" />
    <vehicle id="fr_229" type="fr" route="fr" depart="7" />
    <vehicle id="ml_230" type="ml" route="ml" depart="8" />
    <vehicle id="ml_231" type="ml" route="ml" depart="9" />
    <vehicle id="ml_232" type="ml" route="ml" depart="10" />
    <vehicle id="ml_233" type="ml" route="ml" depart="11" />
    <vehicle id="ml_234" type="ml" route="ml" depart="12" />
    <vehicle id="ml_235" type="ml" route="ml" depart="13" />
    <vehicle id="fr_236" type="fr" route="fr" depart="14" />
    <vehicle id="ml_237" type="ml" route="ml" depart="0" />
    <vehicle id="ml_238" type="ml" route="ml" depart="1" />
    <vehicle id="ml_239" type="ml" route="ml" depart="2" />
    <vehicle id="ml_240" type="ml" route="ml" depart="3" />
    <vehicle id="ml_241" type="ml" route="ml" depart="4" />
    <vehicle id="ml_242" type="ml" route="ml" depart="5" />
    <vehicle id="fr_243" type="fr" route="fr" depart="6" />
    <vehicle id="ml_244" type="ml" route="ml" depart="7" />
    <vehicle id="ml_245" type="ml" route="ml" depart="8" />
    <vehicle id="ml_246" type="ml" route="ml" depart="9" />
    <vehicle id="ml_247" type="ml" route="ml" depart="10" />
    <vehicle id="ml_248" type="ml" route="ml" depart="11" />
    <vehicle id="ml_249" type="ml" route="ml" depart="12" />
    <vehicle id="ml_250" type="ml" route="ml" depart="13" />
    <vehicle id="fr_251" type="fr" route="fr" depart="14" />
    <vehicle id="ml_252" type="ml" route="ml" depart="15" />
    <vehicle id="ml_253" type="ml" route="ml" depart="16" />
    <vehicle id="fr_254" type="fr" route="fr" depart="17" />
    <vehicle id="fr_255" type="fr" route="fr" depart="18" />
    <vehicle id="ml_256" type="ml" route="ml" depart="19" />
    <vehicle id="ml_257" type="ml" route="ml" depart="0" />
    <vehicle id="ml_258" type="ml" route="ml" depart="1" />
    <vehicle id="fr_259" type="fr" route="fr" depart="2" />
    <vehicle id="fr_260" type="fr" route="fr" depart="3" />
    <vehicle id="fr_261" type="fr" route="fr" depart="4" />
    <vehicle id="ml_262" type="ml" route="ml" depart="5" />
    <vehicle id="ml_263" type="ml" route="ml" depart="6" />
    <vehicle id="fr_264" type="fr" route="fr" depart="7" />
    <vehicle id="ml_265" type="ml" route="ml" depart="8" />
    <vehicle id="ml_266" type="ml" route="ml" depart="0" />
    <vehicle id="fr_267" type="fr" route="fr" depart="1" />
    <vehicle id="ml_268" type="ml" route="ml" depart="2" />
    <vehicle id="ml_269" type="ml" route="ml" depart="3" />
    <vehicle id="fr_270" type="fr" route="fr" depart="4" />
    <vehicle id="ml_271" type="ml" route="ml" depart="5" />
    <vehicle id="ml_272" type="ml" route="ml" depart="6" />
    <vehicle id="fr_273" type="fr" route="fr" depart="7" />
    <vehicle id="ml_274" type="ml" route="ml" depart="8" />
    <vehicle id="ml_275" type="ml" route="ml" depart="9" />
    <vehicle id="ml_276" type="ml" route="ml" depart="10" />
    <vehicle id="ml_277" type="ml" route="ml" depart="11" />
    <vehicle id="ml_278" type="ml" route="ml" depart="12" />
    <vehicle id="ml_279" type="ml" route="ml" depart="13" />
    <vehicle id="ml_280" type="ml" route="ml" depart="14" />
    <vehicle id="ml_281" type="ml" route="ml" depart="15" />
    <vehicle id="ml_282" type="ml" route="ml" depart="16" />
    <vehicle id="ml_283" type="ml" route="ml" depart="17" />
    <vehicle id="ml_284" type="ml" route="ml" depart="0" />
    <vehicle id="fr_285" type="fr" route="fr" depart="1" />
    <vehicle id="fr_286" type="fr" route="fr" depart="2" />
    <vehicle id="ml_287" type="ml" route="ml" depart="3" />
    <vehicle id="ml_288" type="ml" route="ml" depart="4" />
    <vehicle id="ml_289" type="ml" route="ml" depart="5" />
    <vehicle id="ml_290" type="ml" route="ml" depart="6" />
    <vehicle id="fr_291" type="fr" route="fr" depart="7" />
    <vehicle id="ml_292" type="ml" route="ml" depart="8" />
    <vehicle id="ml_293" type="ml" route="ml" depart="9" />
    <vehicle id="ml_294" type="ml" route="ml" depart="10" />
    <vehicle id="ml_295" type="ml" route="ml" depart="11" />
    <vehicle id="ml_296" type="ml" route="ml" depart="12" />
    <vehicle id="ml_297" type="ml" route="ml" depart="13" />
    <vehicle id="ml_298" type="ml" route="ml" depart="14" />
    <vehicle id="fr_299" type="fr" route="fr" depart="0" />
    <vehicle id="fr_300" type="fr" route="fr" depart="1" />
    <vehicle id="ml_301" type="ml" route="ml" depart="2" />
    <vehicle id="fr_302" type="fr" route="fr" depart="3" />
    <vehicle id="ml_303" type="ml" route="ml" depart="4" />
    <vehicle id="ml_304" type="ml" route="ml" depart="5" />
    <vehicle id="ml_305" type="ml" route="ml" depart="6" />
    <vehicle id="ml_306" type="ml" route="ml" depart="7" />
    <vehicle id="fr_307" type="fr" route="fr" depart="8" />
    <vehicle id="fr_308" type="fr" route="fr" depart="9" />
    <vehicle id="fr_309" type="fr" route="fr" depart="10" />
    <vehicle id="fr_310" type="fr" route="fr" depart="11" />
    <vehicle id="ml_311" type="ml" route="ml" depart="12" />
    <vehicle id="ml_312" type="ml" route="ml" depart="0" />
    <vehicle id="ml_313" type="ml" route="ml" depart="1" />
    <vehicle id="fr_314" type="fr" route="fr" depart="2" />
    <vehicle id="fr_315" type="fr" route="fr" depart="3" />
    <vehicle id="ml_316" type="ml" route="ml" depart="4" />
    <vehicle id="ml_317" type="ml" route="ml" depart="5" />
    <vehicle id="ml_318" type="ml" route="ml" depart="6" />
    <vehicle id="fr_319" type="fr" route="fr" depart="7" />
    <vehicle id="fr_320" type="fr" route="fr" depart="8" />
    <vehicle id="fr_321" type="fr" route="fr" depart="9" />
    <vehicle id="fr_322" type="fr" route="fr" depart="10" />
    <vehicle id="fr_323" type="fr" route="fr" depart="11" />
    <vehicle id="ml_324" type="ml" route="ml" depart="12" />
    <vehicle id="ml_325" type="ml" route="ml" depart="13" />
    <vehicle id="ml_326" type="ml" route="ml" depart="14" />
    <vehicle id="fr_327" type="fr" route="fr" depart="15" />
    <vehicle id="fr_328" type="fr" route="fr" depart="16" />
    <vehicle id="fr_329" type="fr" route="fr" depart="17" />
    <vehicle id="fr_330" type="fr" route="fr" depart="18" />
    <vehicle id="ml_331" type="ml" route="ml" depart="19" />
    <vehicle id="fr_332" type="fr" route="fr" depart="20" />
    <vehicle id="ml_333" type="ml" route="ml" depart="21" />
    <vehicle id="fr_334" type="fr" route="fr" depart="22" />
    <vehicle id="fr_335" type="fr" route="fr" depart="0" />
    <vehicle id="ml_336" type="ml" route="ml" depart="1" />
    <vehicle id="fr_337" type="fr" route="fr" depart="2" />
    <vehicle id="ml_338" type="ml" route="ml" depart="3" />
    <vehicle id="ml_339" type="ml" route="ml" depart="4" />
    <vehicle id="fr_340" type="fr" route="fr" depart="5" />
    <vehicle id="ml_341" type="ml" route="ml" depart="6" />
    <vehicle id="ml_342" type="ml" route="ml" depart="7" />
    <vehicle id="ml_343" type="ml" route="ml" depart="8" />
    <vehicle id="ml_344" type="ml" route="ml" depart="9" />
    <vehicle id="fr_345" type="fr" route="fr" depart="10" />
    <vehicle id="fr_346" type="fr" route="fr" depart="11" />
    <vehicle id="ml_347" type="ml" route="ml" depart="12" />
    <vehicle id="ml_348" type="ml" route="ml" depart="13" />
    <vehicle id="ml_349" type="ml" route="ml" depart="14" />
    <vehicle id="fr_350" type="fr" route="fr" depart="15" />
    <vehicle id="ml_351" type="ml" route="ml" depart="16" />
    <vehicle id="fr_352" type="fr" route="fr" depart="17" />
    <vehicle id="ml_353" type="ml" route="ml" depart="18" />
    <vehicle id="fr_354" type="fr" route="fr" depart="19" />
    <vehicle id="ml_355" type="ml" route="ml" depart="0" />
    <vehicle id="fr_356" type="fr" route="fr" depart="1" />
    <vehicle id="ml_357" type="ml" route="ml" depart="2" />
    <vehicle id="ml_358" type="ml" route="ml" depart="3" />
    <vehicle id="ml_359" type="ml" route="ml" depart="4" />
    <vehicle id="ml_360" type="ml" route="ml" depart="5" />
    <vehicle id="ml_361" type="ml" route="ml" depart="6" />
    <vehicle id="ml_362" type="ml" route="ml" depart="7" />
    <vehicle id="ml_363" type="ml" route="ml" depart="8" />
    <vehicle id="ml_364" type="ml" route="ml" depart="9" />
    <vehicle id="ml_365" type="ml" route="ml" depart="10" />
    <vehicle id="ml_366" type="ml" route="ml" depart="11" />
    <vehicle id="ml_367" type="ml" route="ml" depart="12" />
    <vehicle id="ml_368" type="ml" route="ml" depart="13" />
    <vehicle id="fr_369" type="fr" route="fr" depart="14" />
    <vehicle id="ml_370" type="ml" route="ml" depart="15" />
    <vehicle id="ml_371" type="ml" route="ml" depart="16" />
    <vehicle id="ml_372" type="ml" route="ml" depart="17" />
    <vehicle id="ml_373" type="ml" route="ml" depart="0" />
    <vehicle id="ml_374" type="ml" route="ml" depart="1" />
    <vehicle id="ml_375" type="ml" route="ml" depart="2" />
    <vehicle id="ml_376" type="ml" route="ml" depart="3" />
    <vehicle id="ml_377" type="ml" route="ml" depart="4" />
    <vehicle id="ml_378" type="ml" route="ml" depart="5" />
    <vehicle id="fr_379" type="fr" route="fr" depart="6" />
    <vehicle id="ml_380" type="ml" route="ml" depart="0" />
    <vehicle id="ml_381" type="ml" route="ml" depart="1" />
    <vehicle id="ml_382" type="ml" route="ml" depart="2" />
    <vehicle id="ml_383" type="ml" route="ml" depart="3" />
    <vehicle id="ml_384" type="ml" route="ml" depart="4" />
    <vehicle id="ml_385" type="ml" route="ml" depart="5" />
    <vehicle id="ml_386" type="ml" route="ml" depart="6" />
    <vehicle id="ml_387" type="ml" route="ml" depart="7" />
    <vehicle id="fr_388" type="fr" route="fr" depart="8" />
    <vehicle id="ml_389" type="ml" route="ml" depart="9" />
    <vehicle id="fr_390" type="fr" route="fr" depart="10" />
    <vehicle id="ml_391" type="ml" route="ml" depart="11" />
    <vehicle id="ml_392" type="ml" route="ml" depart="12" />
    <vehicle id="ml_393" type="ml" route="ml" depart="13" />
    <vehicle id="ml_394" type="ml" route="ml" depart="14" />
    <vehicle id="ml_395" type="ml" route="ml" depart="15" />
    <vehicle id="ml_396" type="ml" route="ml" depart="16" />
    <vehicle id="ml_397" type="ml" route="ml" depart="17" />
    <vehicle id="ml_398" type="ml" route="ml" depart="18" />
    <vehicle id="ml_399" type="ml" route="ml" depart="19" />
    <vehicle id="ml_400" type="ml" route="ml" depart="20" />
    <vehicle id="ml_401" type="ml" route="ml" depart="21" />
    <vehicle id="ml_402" type="ml" route="ml" depart="22" />
    <vehicle id="fr_403" type="fr" route="fr" depart="23" />
    <vehicle id="fr_404" type="fr" route="fr" depart="0" />
    <vehicle id="ml_405" type="ml" route="ml" depart="1" />
    <vehicle id="ml_406" type="ml" route="ml" depart="2" />
    <vehicle id="ml_407" type="ml" route="ml" depart="3" />
    <vehicle id="ml_408" type="ml" route="ml" depart="4" />
    <vehicle id="ml_409" type="ml" route="ml" depart="5" />
    <vehicle id="fr_410" type="fr" route="fr" depart="6" />
    <vehicle id="fr_411" type="fr" route="fr" depart="0" />
    <vehicle id="ml_412" type="ml" route="ml" depart="1" />
    <vehicle id="ml_413" type="ml" route="ml" depart="2" />
    <vehicle id="ml_414" type="ml" route="ml" depart="3" />
    <vehicle id="ml_415" type="ml" route="ml" depart="4" />
    <vehicle id="ml_416" type="ml" route="ml" depart="5" />
    <vehicle id="ml_417" type="ml" route="ml" depart="6" />
    <vehicle id="fr_418" type="fr" route="fr" depart="7" />
    <vehicle id="ml_419" type="ml" route="ml" depart="8" />
    <vehicle id="ml_420" type="ml" route="ml" depart="9" />
    <vehicle id="ml_421" type="ml" route="ml" depart="10" />
    <vehicle id="ml_422" type="ml" route="ml" depart="11" />
    <vehicle id="ml_423" type="ml" route="ml" depart="12" />
    <vehicle id="ml_424" type="ml" route="ml" depart="13" />
    <vehicle id="ml_425" type="ml" route="ml" depart="14" />
    <vehicle id="ml_426" type="ml" route="ml" depart="15" />
    <vehicle id="ml_427" type="ml" route="ml" depart="16" />
    <vehicle id="fr_428" type="fr" route="fr" depart="17" />
    <vehicle id="fr_429" type="fr" route="fr" depart="18" />
    <vehicle id="ml_430" type="ml" route="ml" depart="19" />
    <vehicle id="ml_431" type="ml" route="ml" depart="20" />
    <vehicle id="ml_432" type="ml" route="ml" depart="21" />
    <vehicle id="fr_433" type="fr" route="fr" depart="22" />
    <vehicle id="ml_434" type="ml" route="ml" depart="23" />
    <vehicle id="ml_435" type="ml" route="ml" depart="24" />
    <vehicle id="ml_436" type="ml" route="ml" depart="25" />
    <vehicle id="fr_437" type="fr" route="fr" depart="26" />
    <vehicle id="ml_438" type="ml" route="ml" depart="27" />
    <vehicle id="fr_439" type="fr" route="fr" depart="28" />
    <vehicle id="ml_440" type="ml" route="ml" depart="29" />
    <vehicle id="fr_441" type="fr" route="fr" depart="0" />
    <vehicle id="ml_442" type="ml" route="ml" depart="1" />
    <vehicle id="fr_443" type="fr" route="fr" depart="2" />
    <vehicle id="fr_444" type="fr" route="fr" depart="3" />
    <vehicle id="ml_445" type="ml" route="ml" depart="4" />
    <vehicle id="ml_446" type="ml" route="ml" depart="5" />
    <vehicle id="ml_447" type="ml" route="ml" depart="6" />
    <vehicle id="fr_448" type="fr" route="fr" depart="7" />
    <vehicle id="ml_449" type="ml" route="ml" depart="8" />
    <vehicle id="fr_450" type="fr" route="fr" depart="9" />
    <vehicle id="ml_451" type="ml" route="ml" depart="10" />
    <vehicle id="ml_452" type="ml" route="ml" depart="11" />
    <vehicle id="ml_453" type="ml" route="ml" depart="12" />
    <vehicle id="ml_454" type="ml" route="ml" depart="13" />
    <vehicle id="ml_455" type="ml" route="ml" depart="14" />
    <vehicle id="fr_456" type="fr" route="fr" depart="0" />
    <vehicle id="ml_457" type="ml" route="ml" depart="1" />
    <vehicle id="ml_458" type="ml" route="ml" depart="2" />
    <vehicle id="ml_459" type="ml" route="ml" depart="3" />
    <vehicle id="ml_460" type="ml" route="ml" depart="4" />
    <vehicle id="ml_461" type="ml" route="ml" depart="5" />
    <vehicle id="ml_462" type="ml" route="ml" depart="6" />
    <vehicle id="ml_463" type="ml" route="ml" depart="7" />
    <vehicle id="ml_464" type="ml" route="ml" depart="8" />
    <vehicle id="ml_465" type="ml" route="ml" depart="9" />
    <vehicle id="ml_466" type="ml" route="ml" depart="10" />
    <vehicle id="ml_467" type="ml" route="ml" depart="11" />
    <vehicle id="ml_468" type="ml" route="ml" depart="12" />
    <vehicle id="ml_469" type="ml" route="ml" depart="13" />
    <vehicle id="ml_470" type="ml" route="ml" depart="14" />
    <vehicle id="ml_471" type="ml" route="ml" depart="15" />
    <vehicle id="ml_472" type="ml" route="ml" depart="16" />
    <vehicle id="ml_473" type="ml" route="ml" depart="17" />
    <vehicle id="ml_474" type="ml" route="ml" depart="0" />
    <vehicle id="fr_475" type="fr" route="fr" depart="1" />
    <vehicle id="ml_476" type="ml" route="ml" depart="2" />
    <vehicle id="ml_477" type="ml" route="ml" depart="3" />
    <vehicle id="fr_478" type="fr" route="fr" depart="4" />
    <vehicle id="fr_479" type="fr" route="fr" depart="5" />
    <vehicle id="ml_480" type="ml" route="ml" depart="6" />
    <vehicle id="ml_481" type="ml" route="ml" depart="7" />
    <vehicle id="ml_482" type="ml" route="ml" depart="8" />
    <vehicle id="fr_483" type="fr" route="fr" depart="9" />
    <vehicle id="fr_484" type="fr" route="fr" depart="10" />
    <vehicle id="fr_485" type="fr" route="fr" depart="11" />
    <vehicle id="ml_486" type="ml" route="ml" depart="12" />
    <vehicle id="ml_487" type="ml" route="ml" depart="0" />
    <vehicle id="ml_488" type="ml" route="ml" depart="1" />